data_Al-Fum

_audit_creation_method RASPA-1.0
_audit_creation_date 2025-7-9
_audit_author_name ''

_citation_id                 1
_citation_year               10.1002/anie.201410459

_cell_length_a    27.3676
_cell_length_b    36.2631
_cell_length_c    28.414
_cell_angle_alpha 90
_cell_angle_beta  122.547
_cell_angle_gamma 90
_cell_volume      23770.4

_symmetry_cell_setting          monoclinic
_symmetry_space_group_name_Hall 'P 1'
_symmetry_space_group_name_H-M  'P 1'
_symmetry_Int_Tables_number     1

_symmetry_equiv_pos_as_xyz 'x,y,z'

loop_
_atom_site_label
_atom_site_type_symbol
_atom_site_fract_x
_atom_site_fract_y
_atom_site_fract_z
_atom_site_charge
Al1      Al     0.125000000000     0.166666666667     0.000000000000     5.86518    
Al2      Al     0.000000000000     0.166666666667     0.000000000000     5.22206    
O1       O      0.045030000000     0.172436666667     0.470075000000    -2.2099     
O2       O      0.061762500000     0.133383333333     0.057955000000    -1.16081    
O3       O      0.134610000000     0.122923333333     0.042190000000    -1.30462    
O4       O      0.112650000000     0.031100000000     0.189835000000    -1.52042    
O5       O      0.195690000000     0.037780000000     0.199710000000    -1.36863    
C1       C      0.107442500000     0.115663333333     0.066910000000     0.787751   
C2       C      0.138610000000     0.088320000000     0.111015000000    -0.131926   
C3       C      0.113945000000     0.075973333333     0.136905000000    -0.355006   
C4       C      0.144672500000     0.046996666667     0.180200000000     1.23609    
H2       H      0.182420000000     0.077390000000     0.121530000000     0.0406641  
H3       H      0.069430000000     0.085956666667     0.125810000000     0.0989647  
H1       H      0.019262500000     0.158140000000     0.434670000000     0.344226   
Al1      Al     0.125000000000     0.000000000000     0.250000000000     5.86518    
Al2      Al     0.000000000000     0.000000000000     0.250000000000     5.22206    
O1       O      0.204970000000     0.005770000000     0.279925000000    -2.2099     
O2       O      0.188237500000     0.300050000000     0.192045000000    -1.16081    
O3       O      0.115390000000     0.289590000000     0.207810000000    -1.30462    
O4       O      0.137350000000     0.197766666667     0.060165000000    -1.52042    
O5       O      0.054310000000     0.204446666667     0.050290000000    -1.36863    
C1       C      0.142557500000     0.282330000000     0.183090000000     0.787751   
C2       C      0.111390000000     0.254986666667     0.138985000000    -0.131926   
C3       C      0.136055000000     0.242640000000     0.113095000000    -0.355006   
C4       C      0.105327500000     0.213663333333     0.069800000000     1.23609    
H2       H      0.067580000000     0.244056666667     0.128470000000     0.0406641  
H3       H      0.180570000000     0.252623333333     0.124190000000     0.0989647  
H1       H      0.230737500000     0.324806666667     0.315330000000     0.344226   
O1       O      0.204970000000     0.160896666667     0.029925000000    -2.2099     
O2       O      0.188237500000     0.199950000000     0.442045000000    -1.16081    
O3       O      0.115390000000     0.210410000000     0.457810000000    -1.30462    
O4       O      0.137350000000     0.302233333333     0.310165000000    -1.52042    
O5       O      0.054310000000     0.295553333333     0.300290000000    -1.36863    
C1       C      0.142557500000     0.217670000000     0.433090000000     0.787751   
C2       C      0.111390000000     0.245013333333     0.388985000000    -0.131926   
C3       C      0.136055000000     0.257360000000     0.363095000000    -0.355006   
C4       C      0.105327500000     0.286336666667     0.319800000000     1.23609    
H2       H      0.067580000000     0.255943333333     0.378470000000     0.0406641  
H3       H      0.180570000000     0.247376666667     0.374190000000     0.0989647  
H1       H      0.230737500000     0.175193333333     0.065330000000     0.344226   
O1       O      0.045030000000     0.327563333333     0.220075000000    -2.2099     
O2       O      0.061762500000     0.033283333333     0.307955000000    -1.16081    
O3       O      0.134610000000     0.043743333333     0.292190000000    -1.30462    
O4       O      0.112650000000     0.135566666667     0.439835000000    -1.52042    
O5       O      0.195690000000     0.128886666667     0.449710000000    -1.36863    
C1       C      0.107442500000     0.051003333333     0.316910000000     0.787751   
C2       C      0.138610000000     0.078346666667     0.361015000000    -0.131926   
C3       C      0.113945000000     0.090693333333     0.386905000000    -0.355006   
C4       C      0.144672500000     0.119670000000     0.430200000000     1.23609    
H2       H      0.182420000000     0.089276666667     0.371530000000     0.0406641  
H3       H      0.069430000000     0.080710000000     0.375810000000     0.0989647  
H1       H      0.019262500000     0.008526666667     0.184670000000     0.344226   
Al1      Al     0.125000000000     0.166666666667     0.500000000000     5.86518    
Al2      Al     0.000000000000     0.166666666667     0.500000000000     5.22206    
O1       O      0.045030000000     0.172436666667     0.970075000000    -2.2099     
O2       O      0.061762500000     0.133383333333     0.557955000000    -1.16081    
O3       O      0.134610000000     0.122923333333     0.542190000000    -1.30462    
O4       O      0.112650000000     0.031100000000     0.689835000000    -1.52042    
O5       O      0.195690000000     0.037780000000     0.699710000000    -1.36863    
C1       C      0.107442500000     0.115663333333     0.566910000000     0.787751   
C2       C      0.138610000000     0.088320000000     0.611015000000    -0.131926   
C3       C      0.113945000000     0.075973333333     0.636905000000    -0.355006   
C4       C      0.144672500000     0.046996666667     0.680200000000     1.23609    
H2       H      0.182420000000     0.077390000000     0.621530000000     0.0406641  
H3       H      0.069430000000     0.085956666667     0.625810000000     0.0989647  
H1       H      0.019262500000     0.158140000000     0.934670000000     0.344226   
Al1      Al     0.125000000000     0.000000000000     0.750000000000     5.86518    
Al2      Al     0.000000000000     0.000000000000     0.750000000000     5.22206    
O1       O      0.204970000000     0.005770000000     0.779925000000    -2.2099     
O2       O      0.188237500000     0.300050000000     0.692045000000    -1.16081    
O3       O      0.115390000000     0.289590000000     0.707810000000    -1.30462    
O4       O      0.137350000000     0.197766666667     0.560165000000    -1.52042    
O5       O      0.054310000000     0.204446666667     0.550290000000    -1.36863    
C1       C      0.142557500000     0.282330000000     0.683090000000     0.787751   
C2       C      0.111390000000     0.254986666667     0.638985000000    -0.131926   
C3       C      0.136055000000     0.242640000000     0.613095000000    -0.355006   
C4       C      0.105327500000     0.213663333333     0.569800000000     1.23609    
H2       H      0.067580000000     0.244056666667     0.628470000000     0.0406641  
H3       H      0.180570000000     0.252623333333     0.624190000000     0.0989647  
H1       H      0.230737500000     0.324806666667     0.815330000000     0.344226   
O1       O      0.204970000000     0.160896666667     0.529925000000    -2.2099     
O2       O      0.188237500000     0.199950000000     0.942045000000    -1.16081    
O3       O      0.115390000000     0.210410000000     0.957810000000    -1.30462    
O4       O      0.137350000000     0.302233333333     0.810165000000    -1.52042    
O5       O      0.054310000000     0.295553333333     0.800290000000    -1.36863    
C1       C      0.142557500000     0.217670000000     0.933090000000     0.787751   
C2       C      0.111390000000     0.245013333333     0.888985000000    -0.131926   
C3       C      0.136055000000     0.257360000000     0.863095000000    -0.355006   
C4       C      0.105327500000     0.286336666667     0.819800000000     1.23609    
H2       H      0.067580000000     0.255943333333     0.878470000000     0.0406641  
H3       H      0.180570000000     0.247376666667     0.874190000000     0.0989647  
H1       H      0.230737500000     0.175193333333     0.565330000000     0.344226   
O1       O      0.045030000000     0.327563333333     0.720075000000    -2.2099     
O2       O      0.061762500000     0.033283333333     0.807955000000    -1.16081    
O3       O      0.134610000000     0.043743333333     0.792190000000    -1.30462    
O4       O      0.112650000000     0.135566666667     0.939835000000    -1.52042    
O5       O      0.195690000000     0.128886666667     0.949710000000    -1.36863    
C1       C      0.107442500000     0.051003333333     0.816910000000     0.787751   
C2       C      0.138610000000     0.078346666667     0.861015000000    -0.131926   
C3       C      0.113945000000     0.090693333333     0.886905000000    -0.355006   
C4       C      0.144672500000     0.119670000000     0.930200000000     1.23609    
H2       H      0.182420000000     0.089276666667     0.871530000000     0.0406641  
H3       H      0.069430000000     0.080710000000     0.875810000000     0.0989647  
H1       H      0.019262500000     0.008526666667     0.684670000000     0.344226   
Al1      Al     0.125000000000     0.500000000000     0.000000000000     5.86518    
Al2      Al     0.000000000000     0.500000000000     0.000000000000     5.22206    
O1       O      0.045030000000     0.505770000000     0.470075000000    -2.2099     
O2       O      0.061762500000     0.466716666667     0.057955000000    -1.16081    
O3       O      0.134610000000     0.456256666667     0.042190000000    -1.30462    
O4       O      0.112650000000     0.364433333333     0.189835000000    -1.52042    
O5       O      0.195690000000     0.371113333333     0.199710000000    -1.36863    
C1       C      0.107442500000     0.448996666667     0.066910000000     0.787751   
C2       C      0.138610000000     0.421653333333     0.111015000000    -0.131926   
C3       C      0.113945000000     0.409306666667     0.136905000000    -0.355006   
C4       C      0.144672500000     0.380330000000     0.180200000000     1.23609    
H2       H      0.182420000000     0.410723333333     0.121530000000     0.0406641  
H3       H      0.069430000000     0.419290000000     0.125810000000     0.0989647  
H1       H      0.019262500000     0.491473333333     0.434670000000     0.344226   
Al1      Al     0.125000000000     0.333333333333     0.250000000000     5.86518    
Al2      Al     0.000000000000     0.333333333333     0.250000000000     5.22206    
O1       O      0.204970000000     0.339103333333     0.279925000000    -2.2099     
O2       O      0.188237500000     0.633383333333     0.192045000000    -1.16081    
O3       O      0.115390000000     0.622923333333     0.207810000000    -1.30462    
O4       O      0.137350000000     0.531100000000     0.060165000000    -1.52042    
O5       O      0.054310000000     0.537780000000     0.050290000000    -1.36863    
C1       C      0.142557500000     0.615663333333     0.183090000000     0.787751   
C2       C      0.111390000000     0.588320000000     0.138985000000    -0.131926   
C3       C      0.136055000000     0.575973333333     0.113095000000    -0.355006   
C4       C      0.105327500000     0.546996666667     0.069800000000     1.23609    
H2       H      0.067580000000     0.577390000000     0.128470000000     0.0406641  
H3       H      0.180570000000     0.585956666667     0.124190000000     0.0989647  
H1       H      0.230737500000     0.658140000000     0.315330000000     0.344226   
O1       O      0.204970000000     0.494230000000     0.029925000000    -2.2099     
O2       O      0.188237500000     0.533283333333     0.442045000000    -1.16081    
O3       O      0.115390000000     0.543743333333     0.457810000000    -1.30462    
O4       O      0.137350000000     0.635566666667     0.310165000000    -1.52042    
O5       O      0.054310000000     0.628886666667     0.300290000000    -1.36863    
C1       C      0.142557500000     0.551003333333     0.433090000000     0.787751   
C2       C      0.111390000000     0.578346666667     0.388985000000    -0.131926   
C3       C      0.136055000000     0.590693333333     0.363095000000    -0.355006   
C4       C      0.105327500000     0.619670000000     0.319800000000     1.23609    
H2       H      0.067580000000     0.589276666667     0.378470000000     0.0406641  
H3       H      0.180570000000     0.580710000000     0.374190000000     0.0989647  
H1       H      0.230737500000     0.508526666667     0.065330000000     0.344226   
O1       O      0.045030000000     0.660896666667     0.220075000000    -2.2099     
O2       O      0.061762500000     0.366616666667     0.307955000000    -1.16081    
O3       O      0.134610000000     0.377076666667     0.292190000000    -1.30462    
O4       O      0.112650000000     0.468900000000     0.439835000000    -1.52042    
O5       O      0.195690000000     0.462220000000     0.449710000000    -1.36863    
C1       C      0.107442500000     0.384336666667     0.316910000000     0.787751   
C2       C      0.138610000000     0.411680000000     0.361015000000    -0.131926   
C3       C      0.113945000000     0.424026666667     0.386905000000    -0.355006   
C4       C      0.144672500000     0.453003333333     0.430200000000     1.23609    
H2       H      0.182420000000     0.422610000000     0.371530000000     0.0406641  
H3       H      0.069430000000     0.414043333333     0.375810000000     0.0989647  
H1       H      0.019262500000     0.341860000000     0.184670000000     0.344226   
Al1      Al     0.125000000000     0.500000000000     0.500000000000     5.86518    
Al2      Al     0.000000000000     0.500000000000     0.500000000000     5.22206    
O1       O      0.045030000000     0.505770000000     0.970075000000    -2.2099     
O2       O      0.061762500000     0.466716666667     0.557955000000    -1.16081    
O3       O      0.134610000000     0.456256666667     0.542190000000    -1.30462    
O4       O      0.112650000000     0.364433333333     0.689835000000    -1.52042    
O5       O      0.195690000000     0.371113333333     0.699710000000    -1.36863    
C1       C      0.107442500000     0.448996666667     0.566910000000     0.787751   
C2       C      0.138610000000     0.421653333333     0.611015000000    -0.131926   
C3       C      0.113945000000     0.409306666667     0.636905000000    -0.355006   
C4       C      0.144672500000     0.380330000000     0.680200000000     1.23609    
H2       H      0.182420000000     0.410723333333     0.621530000000     0.0406641  
H3       H      0.069430000000     0.419290000000     0.625810000000     0.0989647  
H1       H      0.019262500000     0.491473333333     0.934670000000     0.344226   
Al1      Al     0.125000000000     0.333333333333     0.750000000000     5.86518    
Al2      Al     0.000000000000     0.333333333333     0.750000000000     5.22206    
O1       O      0.204970000000     0.339103333333     0.779925000000    -2.2099     
O2       O      0.188237500000     0.633383333333     0.692045000000    -1.16081    
O3       O      0.115390000000     0.622923333333     0.707810000000    -1.30462    
O4       O      0.137350000000     0.531100000000     0.560165000000    -1.52042    
O5       O      0.054310000000     0.537780000000     0.550290000000    -1.36863    
C1       C      0.142557500000     0.615663333333     0.683090000000     0.787751   
C2       C      0.111390000000     0.588320000000     0.638985000000    -0.131926   
C3       C      0.136055000000     0.575973333333     0.613095000000    -0.355006   
C4       C      0.105327500000     0.546996666667     0.569800000000     1.23609    
H2       H      0.067580000000     0.577390000000     0.628470000000     0.0406641  
H3       H      0.180570000000     0.585956666667     0.624190000000     0.0989647  
H1       H      0.230737500000     0.658140000000     0.815330000000     0.344226   
O1       O      0.204970000000     0.494230000000     0.529925000000    -2.2099     
O2       O      0.188237500000     0.533283333333     0.942045000000    -1.16081    
O3       O      0.115390000000     0.543743333333     0.957810000000    -1.30462    
O4       O      0.137350000000     0.635566666667     0.810165000000    -1.52042    
O5       O      0.054310000000     0.628886666667     0.800290000000    -1.36863    
C1       C      0.142557500000     0.551003333333     0.933090000000     0.787751   
C2       C      0.111390000000     0.578346666667     0.888985000000    -0.131926   
C3       C      0.136055000000     0.590693333333     0.863095000000    -0.355006   
C4       C      0.105327500000     0.619670000000     0.819800000000     1.23609    
H2       H      0.067580000000     0.589276666667     0.878470000000     0.0406641  
H3       H      0.180570000000     0.580710000000     0.874190000000     0.0989647  
H1       H      0.230737500000     0.508526666667     0.565330000000     0.344226   
O1       O      0.045030000000     0.660896666667     0.720075000000    -2.2099     
O2       O      0.061762500000     0.366616666667     0.807955000000    -1.16081    
O3       O      0.134610000000     0.377076666667     0.792190000000    -1.30462    
O4       O      0.112650000000     0.468900000000     0.939835000000    -1.52042    
O5       O      0.195690000000     0.462220000000     0.949710000000    -1.36863    
C1       C      0.107442500000     0.384336666667     0.816910000000     0.787751   
C2       C      0.138610000000     0.411680000000     0.861015000000    -0.131926   
C3       C      0.113945000000     0.424026666667     0.886905000000    -0.355006   
C4       C      0.144672500000     0.453003333333     0.930200000000     1.23609    
H2       H      0.182420000000     0.422610000000     0.871530000000     0.0406641  
H3       H      0.069430000000     0.414043333333     0.875810000000     0.0989647  
H1       H      0.019262500000     0.341860000000     0.684670000000     0.344226   
Al1      Al     0.125000000000     0.833333333333     0.000000000000     5.86518    
Al2      Al     0.000000000000     0.833333333333     0.000000000000     5.22206    
O1       O      0.045030000000     0.839103333333     0.470075000000    -2.2099     
O2       O      0.061762500000     0.800050000000     0.057955000000    -1.16081    
O3       O      0.134610000000     0.789590000000     0.042190000000    -1.30462    
O4       O      0.112650000000     0.697766666667     0.189835000000    -1.52042    
O5       O      0.195690000000     0.704446666667     0.199710000000    -1.36863    
C1       C      0.107442500000     0.782330000000     0.066910000000     0.787751   
C2       C      0.138610000000     0.754986666667     0.111015000000    -0.131926   
C3       C      0.113945000000     0.742640000000     0.136905000000    -0.355006   
C4       C      0.144672500000     0.713663333333     0.180200000000     1.23609    
H2       H      0.182420000000     0.744056666667     0.121530000000     0.0406641  
H3       H      0.069430000000     0.752623333333     0.125810000000     0.0989647  
H1       H      0.019262500000     0.824806666667     0.434670000000     0.344226   
Al1      Al     0.125000000000     0.666666666667     0.250000000000     5.86518    
Al2      Al     0.000000000000     0.666666666667     0.250000000000     5.22206    
O1       O      0.204970000000     0.672436666667     0.279925000000    -2.2099     
O2       O      0.188237500000     0.966716666667     0.192045000000    -1.16081    
O3       O      0.115390000000     0.956256666667     0.207810000000    -1.30462    
O4       O      0.137350000000     0.864433333333     0.060165000000    -1.52042    
O5       O      0.054310000000     0.871113333333     0.050290000000    -1.36863    
C1       C      0.142557500000     0.948996666667     0.183090000000     0.787751   
C2       C      0.111390000000     0.921653333333     0.138985000000    -0.131926   
C3       C      0.136055000000     0.909306666667     0.113095000000    -0.355006   
C4       C      0.105327500000     0.880330000000     0.069800000000     1.23609    
H2       H      0.067580000000     0.910723333333     0.128470000000     0.0406641  
H3       H      0.180570000000     0.919290000000     0.124190000000     0.0989647  
H1       H      0.230737500000     0.991473333333     0.315330000000     0.344226   
O1       O      0.204970000000     0.827563333333     0.029925000000    -2.2099     
O2       O      0.188237500000     0.866616666667     0.442045000000    -1.16081    
O3       O      0.115390000000     0.877076666667     0.457810000000    -1.30462    
O4       O      0.137350000000     0.968900000000     0.310165000000    -1.52042    
O5       O      0.054310000000     0.962220000000     0.300290000000    -1.36863    
C1       C      0.142557500000     0.884336666667     0.433090000000     0.787751   
C2       C      0.111390000000     0.911680000000     0.388985000000    -0.131926   
C3       C      0.136055000000     0.924026666667     0.363095000000    -0.355006   
C4       C      0.105327500000     0.953003333333     0.319800000000     1.23609    
H2       H      0.067580000000     0.922610000000     0.378470000000     0.0406641  
H3       H      0.180570000000     0.914043333333     0.374190000000     0.0989647  
H1       H      0.230737500000     0.841860000000     0.065330000000     0.344226   
O1       O      0.045030000000     0.994230000000     0.220075000000    -2.2099     
O2       O      0.061762500000     0.699950000000     0.307955000000    -1.16081    
O3       O      0.134610000000     0.710410000000     0.292190000000    -1.30462    
O4       O      0.112650000000     0.802233333333     0.439835000000    -1.52042    
O5       O      0.195690000000     0.795553333333     0.449710000000    -1.36863    
C1       C      0.107442500000     0.717670000000     0.316910000000     0.787751   
C2       C      0.138610000000     0.745013333333     0.361015000000    -0.131926   
C3       C      0.113945000000     0.757360000000     0.386905000000    -0.355006   
C4       C      0.144672500000     0.786336666667     0.430200000000     1.23609    
H2       H      0.182420000000     0.755943333333     0.371530000000     0.0406641  
H3       H      0.069430000000     0.747376666667     0.375810000000     0.0989647  
H1       H      0.019262500000     0.675193333333     0.184670000000     0.344226   
Al1      Al     0.125000000000     0.833333333333     0.500000000000     5.86518    
Al2      Al     0.000000000000     0.833333333333     0.500000000000     5.22206    
O1       O      0.045030000000     0.839103333333     0.970075000000    -2.2099     
O2       O      0.061762500000     0.800050000000     0.557955000000    -1.16081    
O3       O      0.134610000000     0.789590000000     0.542190000000    -1.30462    
O4       O      0.112650000000     0.697766666667     0.689835000000    -1.52042    
O5       O      0.195690000000     0.704446666667     0.699710000000    -1.36863    
C1       C      0.107442500000     0.782330000000     0.566910000000     0.787751   
C2       C      0.138610000000     0.754986666667     0.611015000000    -0.131926   
C3       C      0.113945000000     0.742640000000     0.636905000000    -0.355006   
C4       C      0.144672500000     0.713663333333     0.680200000000     1.23609    
H2       H      0.182420000000     0.744056666667     0.621530000000     0.0406641  
H3       H      0.069430000000     0.752623333333     0.625810000000     0.0989647  
H1       H      0.019262500000     0.824806666667     0.934670000000     0.344226   
Al1      Al     0.125000000000     0.666666666667     0.750000000000     5.86518    
Al2      Al     0.000000000000     0.666666666667     0.750000000000     5.22206    
O1       O      0.204970000000     0.672436666667     0.779925000000    -2.2099     
O2       O      0.188237500000     0.966716666667     0.692045000000    -1.16081    
O3       O      0.115390000000     0.956256666667     0.707810000000    -1.30462    
O4       O      0.137350000000     0.864433333333     0.560165000000    -1.52042    
O5       O      0.054310000000     0.871113333333     0.550290000000    -1.36863    
C1       C      0.142557500000     0.948996666667     0.683090000000     0.787751   
C2       C      0.111390000000     0.921653333333     0.638985000000    -0.131926   
C3       C      0.136055000000     0.909306666667     0.613095000000    -0.355006   
C4       C      0.105327500000     0.880330000000     0.569800000000     1.23609    
H2       H      0.067580000000     0.910723333333     0.628470000000     0.0406641  
H3       H      0.180570000000     0.919290000000     0.624190000000     0.0989647  
H1       H      0.230737500000     0.991473333333     0.815330000000     0.344226   
O1       O      0.204970000000     0.827563333333     0.529925000000    -2.2099     
O2       O      0.188237500000     0.866616666667     0.942045000000    -1.16081    
O3       O      0.115390000000     0.877076666667     0.957810000000    -1.30462    
O4       O      0.137350000000     0.968900000000     0.810165000000    -1.52042    
O5       O      0.054310000000     0.962220000000     0.800290000000    -1.36863    
C1       C      0.142557500000     0.884336666667     0.933090000000     0.787751   
C2       C      0.111390000000     0.911680000000     0.888985000000    -0.131926   
C3       C      0.136055000000     0.924026666667     0.863095000000    -0.355006   
C4       C      0.105327500000     0.953003333333     0.819800000000     1.23609    
H2       H      0.067580000000     0.922610000000     0.878470000000     0.0406641  
H3       H      0.180570000000     0.914043333333     0.874190000000     0.0989647  
H1       H      0.230737500000     0.841860000000     0.565330000000     0.344226   
O1       O      0.045030000000     0.994230000000     0.720075000000    -2.2099     
O2       O      0.061762500000     0.699950000000     0.807955000000    -1.16081    
O3       O      0.134610000000     0.710410000000     0.792190000000    -1.30462    
O4       O      0.112650000000     0.802233333333     0.939835000000    -1.52042    
O5       O      0.195690000000     0.795553333333     0.949710000000    -1.36863    
C1       C      0.107442500000     0.717670000000     0.816910000000     0.787751   
C2       C      0.138610000000     0.745013333333     0.861015000000    -0.131926   
C3       C      0.113945000000     0.757360000000     0.886905000000    -0.355006   
C4       C      0.144672500000     0.786336666667     0.930200000000     1.23609    
H2       H      0.182420000000     0.755943333333     0.871530000000     0.0406641  
H3       H      0.069430000000     0.747376666667     0.875810000000     0.0989647  
H1       H      0.019262500000     0.675193333333     0.684670000000     0.344226   
Al1      Al     0.375000000000     0.166666666667     0.000000000000     5.86518    
Al2      Al     0.250000000000     0.166666666667     0.000000000000     5.22206    
O1       O      0.295030000000     0.172436666667     0.470075000000    -2.2099     
O2       O      0.311762500000     0.133383333333     0.057955000000    -1.16081    
O3       O      0.384610000000     0.122923333333     0.042190000000    -1.30462    
O4       O      0.362650000000     0.031100000000     0.189835000000    -1.52042    
O5       O      0.445690000000     0.037780000000     0.199710000000    -1.36863    
C1       C      0.357442500000     0.115663333333     0.066910000000     0.787751   
C2       C      0.388610000000     0.088320000000     0.111015000000    -0.131926   
C3       C      0.363945000000     0.075973333333     0.136905000000    -0.355006   
C4       C      0.394672500000     0.046996666667     0.180200000000     1.23609    
H2       H      0.432420000000     0.077390000000     0.121530000000     0.0406641  
H3       H      0.319430000000     0.085956666667     0.125810000000     0.0989647  
H1       H      0.269262500000     0.158140000000     0.434670000000     0.344226   
Al1      Al     0.375000000000     0.000000000000     0.250000000000     5.86518    
Al2      Al     0.250000000000     0.000000000000     0.250000000000     5.22206    
O1       O      0.454970000000     0.005770000000     0.279925000000    -2.2099     
O2       O      0.438237500000     0.300050000000     0.192045000000    -1.16081    
O3       O      0.365390000000     0.289590000000     0.207810000000    -1.30462    
O4       O      0.387350000000     0.197766666667     0.060165000000    -1.52042    
O5       O      0.304310000000     0.204446666667     0.050290000000    -1.36863    
C1       C      0.392557500000     0.282330000000     0.183090000000     0.787751   
C2       C      0.361390000000     0.254986666667     0.138985000000    -0.131926   
C3       C      0.386055000000     0.242640000000     0.113095000000    -0.355006   
C4       C      0.355327500000     0.213663333333     0.069800000000     1.23609    
H2       H      0.317580000000     0.244056666667     0.128470000000     0.0406641  
H3       H      0.430570000000     0.252623333333     0.124190000000     0.0989647  
H1       H      0.480737500000     0.324806666667     0.315330000000     0.344226   
O1       O      0.454970000000     0.160896666667     0.029925000000    -2.2099     
O2       O      0.438237500000     0.199950000000     0.442045000000    -1.16081    
O3       O      0.365390000000     0.210410000000     0.457810000000    -1.30462    
O4       O      0.387350000000     0.302233333333     0.310165000000    -1.52042    
O5       O      0.304310000000     0.295553333333     0.300290000000    -1.36863    
C1       C      0.392557500000     0.217670000000     0.433090000000     0.787751   
C2       C      0.361390000000     0.245013333333     0.388985000000    -0.131926   
C3       C      0.386055000000     0.257360000000     0.363095000000    -0.355006   
C4       C      0.355327500000     0.286336666667     0.319800000000     1.23609    
H2       H      0.317580000000     0.255943333333     0.378470000000     0.0406641  
H3       H      0.430570000000     0.247376666667     0.374190000000     0.0989647  
H1       H      0.480737500000     0.175193333333     0.065330000000     0.344226   
O1       O      0.295030000000     0.327563333333     0.220075000000    -2.2099     
O2       O      0.311762500000     0.033283333333     0.307955000000    -1.16081    
O3       O      0.384610000000     0.043743333333     0.292190000000    -1.30462    
O4       O      0.362650000000     0.135566666667     0.439835000000    -1.52042    
O5       O      0.445690000000     0.128886666667     0.449710000000    -1.36863    
C1       C      0.357442500000     0.051003333333     0.316910000000     0.787751   
C2       C      0.388610000000     0.078346666667     0.361015000000    -0.131926   
C3       C      0.363945000000     0.090693333333     0.386905000000    -0.355006   
C4       C      0.394672500000     0.119670000000     0.430200000000     1.23609    
H2       H      0.432420000000     0.089276666667     0.371530000000     0.0406641  
H3       H      0.319430000000     0.080710000000     0.375810000000     0.0989647  
H1       H      0.269262500000     0.008526666667     0.184670000000     0.344226   
Al1      Al     0.375000000000     0.166666666667     0.500000000000     5.86518    
Al2      Al     0.250000000000     0.166666666667     0.500000000000     5.22206    
O1       O      0.295030000000     0.172436666667     0.970075000000    -2.2099     
O2       O      0.311762500000     0.133383333333     0.557955000000    -1.16081    
O3       O      0.384610000000     0.122923333333     0.542190000000    -1.30462    
O4       O      0.362650000000     0.031100000000     0.689835000000    -1.52042    
O5       O      0.445690000000     0.037780000000     0.699710000000    -1.36863    
C1       C      0.357442500000     0.115663333333     0.566910000000     0.787751   
C2       C      0.388610000000     0.088320000000     0.611015000000    -0.131926   
C3       C      0.363945000000     0.075973333333     0.636905000000    -0.355006   
C4       C      0.394672500000     0.046996666667     0.680200000000     1.23609    
H2       H      0.432420000000     0.077390000000     0.621530000000     0.0406641  
H3       H      0.319430000000     0.085956666667     0.625810000000     0.0989647  
H1       H      0.269262500000     0.158140000000     0.934670000000     0.344226   
Al1      Al     0.375000000000     0.000000000000     0.750000000000     5.86518    
Al2      Al     0.250000000000     0.000000000000     0.750000000000     5.22206    
O1       O      0.454970000000     0.005770000000     0.779925000000    -2.2099     
O2       O      0.438237500000     0.300050000000     0.692045000000    -1.16081    
O3       O      0.365390000000     0.289590000000     0.707810000000    -1.30462    
O4       O      0.387350000000     0.197766666667     0.560165000000    -1.52042    
O5       O      0.304310000000     0.204446666667     0.550290000000    -1.36863    
C1       C      0.392557500000     0.282330000000     0.683090000000     0.787751   
C2       C      0.361390000000     0.254986666667     0.638985000000    -0.131926   
C3       C      0.386055000000     0.242640000000     0.613095000000    -0.355006   
C4       C      0.355327500000     0.213663333333     0.569800000000     1.23609    
H2       H      0.317580000000     0.244056666667     0.628470000000     0.0406641  
H3       H      0.430570000000     0.252623333333     0.624190000000     0.0989647  
H1       H      0.480737500000     0.324806666667     0.815330000000     0.344226   
O1       O      0.454970000000     0.160896666667     0.529925000000    -2.2099     
O2       O      0.438237500000     0.199950000000     0.942045000000    -1.16081    
O3       O      0.365390000000     0.210410000000     0.957810000000    -1.30462    
O4       O      0.387350000000     0.302233333333     0.810165000000    -1.52042    
O5       O      0.304310000000     0.295553333333     0.800290000000    -1.36863    
C1       C      0.392557500000     0.217670000000     0.933090000000     0.787751   
C2       C      0.361390000000     0.245013333333     0.888985000000    -0.131926   
C3       C      0.386055000000     0.257360000000     0.863095000000    -0.355006   
C4       C      0.355327500000     0.286336666667     0.819800000000     1.23609    
H2       H      0.317580000000     0.255943333333     0.878470000000     0.0406641  
H3       H      0.430570000000     0.247376666667     0.874190000000     0.0989647  
H1       H      0.480737500000     0.175193333333     0.565330000000     0.344226   
O1       O      0.295030000000     0.327563333333     0.720075000000    -2.2099     
O2       O      0.311762500000     0.033283333333     0.807955000000    -1.16081    
O3       O      0.384610000000     0.043743333333     0.792190000000    -1.30462    
O4       O      0.362650000000     0.135566666667     0.939835000000    -1.52042    
O5       O      0.445690000000     0.128886666667     0.949710000000    -1.36863    
C1       C      0.357442500000     0.051003333333     0.816910000000     0.787751   
C2       C      0.388610000000     0.078346666667     0.861015000000    -0.131926   
C3       C      0.363945000000     0.090693333333     0.886905000000    -0.355006   
C4       C      0.394672500000     0.119670000000     0.930200000000     1.23609    
H2       H      0.432420000000     0.089276666667     0.871530000000     0.0406641  
H3       H      0.319430000000     0.080710000000     0.875810000000     0.0989647  
H1       H      0.269262500000     0.008526666667     0.684670000000     0.344226   
Al1      Al     0.375000000000     0.500000000000     0.000000000000     5.86518    
Al2      Al     0.250000000000     0.500000000000     0.000000000000     5.22206    
O1       O      0.295030000000     0.505770000000     0.470075000000    -2.2099     
O2       O      0.311762500000     0.466716666667     0.057955000000    -1.16081    
O3       O      0.384610000000     0.456256666667     0.042190000000    -1.30462    
O4       O      0.362650000000     0.364433333333     0.189835000000    -1.52042    
O5       O      0.445690000000     0.371113333333     0.199710000000    -1.36863    
C1       C      0.357442500000     0.448996666667     0.066910000000     0.787751   
C2       C      0.388610000000     0.421653333333     0.111015000000    -0.131926   
C3       C      0.363945000000     0.409306666667     0.136905000000    -0.355006   
C4       C      0.394672500000     0.380330000000     0.180200000000     1.23609    
H2       H      0.432420000000     0.410723333333     0.121530000000     0.0406641  
H3       H      0.319430000000     0.419290000000     0.125810000000     0.0989647  
H1       H      0.269262500000     0.491473333333     0.434670000000     0.344226   
Al1      Al     0.375000000000     0.333333333333     0.250000000000     5.86518    
Al2      Al     0.250000000000     0.333333333333     0.250000000000     5.22206    
O1       O      0.454970000000     0.339103333333     0.279925000000    -2.2099     
O2       O      0.438237500000     0.633383333333     0.192045000000    -1.16081    
O3       O      0.365390000000     0.622923333333     0.207810000000    -1.30462    
O4       O      0.387350000000     0.531100000000     0.060165000000    -1.52042    
O5       O      0.304310000000     0.537780000000     0.050290000000    -1.36863    
C1       C      0.392557500000     0.615663333333     0.183090000000     0.787751   
C2       C      0.361390000000     0.588320000000     0.138985000000    -0.131926   
C3       C      0.386055000000     0.575973333333     0.113095000000    -0.355006   
C4       C      0.355327500000     0.546996666667     0.069800000000     1.23609    
H2       H      0.317580000000     0.577390000000     0.128470000000     0.0406641  
H3       H      0.430570000000     0.585956666667     0.124190000000     0.0989647  
H1       H      0.480737500000     0.658140000000     0.315330000000     0.344226   
O1       O      0.454970000000     0.494230000000     0.029925000000    -2.2099     
O2       O      0.438237500000     0.533283333333     0.442045000000    -1.16081    
O3       O      0.365390000000     0.543743333333     0.457810000000    -1.30462    
O4       O      0.387350000000     0.635566666667     0.310165000000    -1.52042    
O5       O      0.304310000000     0.628886666667     0.300290000000    -1.36863    
C1       C      0.392557500000     0.551003333333     0.433090000000     0.787751   
C2       C      0.361390000000     0.578346666667     0.388985000000    -0.131926   
C3       C      0.386055000000     0.590693333333     0.363095000000    -0.355006   
C4       C      0.355327500000     0.619670000000     0.319800000000     1.23609    
H2       H      0.317580000000     0.589276666667     0.378470000000     0.0406641  
H3       H      0.430570000000     0.580710000000     0.374190000000     0.0989647  
H1       H      0.480737500000     0.508526666667     0.065330000000     0.344226   
O1       O      0.295030000000     0.660896666667     0.220075000000    -2.2099     
O2       O      0.311762500000     0.366616666667     0.307955000000    -1.16081    
O3       O      0.384610000000     0.377076666667     0.292190000000    -1.30462    
O4       O      0.362650000000     0.468900000000     0.439835000000    -1.52042    
O5       O      0.445690000000     0.462220000000     0.449710000000    -1.36863    
C1       C      0.357442500000     0.384336666667     0.316910000000     0.787751   
C2       C      0.388610000000     0.411680000000     0.361015000000    -0.131926   
C3       C      0.363945000000     0.424026666667     0.386905000000    -0.355006   
C4       C      0.394672500000     0.453003333333     0.430200000000     1.23609    
H2       H      0.432420000000     0.422610000000     0.371530000000     0.0406641  
H3       H      0.319430000000     0.414043333333     0.375810000000     0.0989647  
H1       H      0.269262500000     0.341860000000     0.184670000000     0.344226   
Al1      Al     0.375000000000     0.500000000000     0.500000000000     5.86518    
Al2      Al     0.250000000000     0.500000000000     0.500000000000     5.22206    
O1       O      0.295030000000     0.505770000000     0.970075000000    -2.2099     
O2       O      0.311762500000     0.466716666667     0.557955000000    -1.16081    
O3       O      0.384610000000     0.456256666667     0.542190000000    -1.30462    
O4       O      0.362650000000     0.364433333333     0.689835000000    -1.52042    
O5       O      0.445690000000     0.371113333333     0.699710000000    -1.36863    
C1       C      0.357442500000     0.448996666667     0.566910000000     0.787751   
C2       C      0.388610000000     0.421653333333     0.611015000000    -0.131926   
C3       C      0.363945000000     0.409306666667     0.636905000000    -0.355006   
C4       C      0.394672500000     0.380330000000     0.680200000000     1.23609    
H2       H      0.432420000000     0.410723333333     0.621530000000     0.0406641  
H3       H      0.319430000000     0.419290000000     0.625810000000     0.0989647  
H1       H      0.269262500000     0.491473333333     0.934670000000     0.344226   
Al1      Al     0.375000000000     0.333333333333     0.750000000000     5.86518    
Al2      Al     0.250000000000     0.333333333333     0.750000000000     5.22206    
O1       O      0.454970000000     0.339103333333     0.779925000000    -2.2099     
O2       O      0.438237500000     0.633383333333     0.692045000000    -1.16081    
O3       O      0.365390000000     0.622923333333     0.707810000000    -1.30462    
O4       O      0.387350000000     0.531100000000     0.560165000000    -1.52042    
O5       O      0.304310000000     0.537780000000     0.550290000000    -1.36863    
C1       C      0.392557500000     0.615663333333     0.683090000000     0.787751   
C2       C      0.361390000000     0.588320000000     0.638985000000    -0.131926   
C3       C      0.386055000000     0.575973333333     0.613095000000    -0.355006   
C4       C      0.355327500000     0.546996666667     0.569800000000     1.23609    
H2       H      0.317580000000     0.577390000000     0.628470000000     0.0406641  
H3       H      0.430570000000     0.585956666667     0.624190000000     0.0989647  
H1       H      0.480737500000     0.658140000000     0.815330000000     0.344226   
O1       O      0.454970000000     0.494230000000     0.529925000000    -2.2099     
O2       O      0.438237500000     0.533283333333     0.942045000000    -1.16081    
O3       O      0.365390000000     0.543743333333     0.957810000000    -1.30462    
O4       O      0.387350000000     0.635566666667     0.810165000000    -1.52042    
O5       O      0.304310000000     0.628886666667     0.800290000000    -1.36863    
C1       C      0.392557500000     0.551003333333     0.933090000000     0.787751   
C2       C      0.361390000000     0.578346666667     0.888985000000    -0.131926   
C3       C      0.386055000000     0.590693333333     0.863095000000    -0.355006   
C4       C      0.355327500000     0.619670000000     0.819800000000     1.23609    
H2       H      0.317580000000     0.589276666667     0.878470000000     0.0406641  
H3       H      0.430570000000     0.580710000000     0.874190000000     0.0989647  
H1       H      0.480737500000     0.508526666667     0.565330000000     0.344226   
O1       O      0.295030000000     0.660896666667     0.720075000000    -2.2099     
O2       O      0.311762500000     0.366616666667     0.807955000000    -1.16081    
O3       O      0.384610000000     0.377076666667     0.792190000000    -1.30462    
O4       O      0.362650000000     0.468900000000     0.939835000000    -1.52042    
O5       O      0.445690000000     0.462220000000     0.949710000000    -1.36863    
C1       C      0.357442500000     0.384336666667     0.816910000000     0.787751   
C2       C      0.388610000000     0.411680000000     0.861015000000    -0.131926   
C3       C      0.363945000000     0.424026666667     0.886905000000    -0.355006   
C4       C      0.394672500000     0.453003333333     0.930200000000     1.23609    
H2       H      0.432420000000     0.422610000000     0.871530000000     0.0406641  
H3       H      0.319430000000     0.414043333333     0.875810000000     0.0989647  
H1       H      0.269262500000     0.341860000000     0.684670000000     0.344226   
Al1      Al     0.375000000000     0.833333333333     0.000000000000     5.86518    
Al2      Al     0.250000000000     0.833333333333     0.000000000000     5.22206    
O1       O      0.295030000000     0.839103333333     0.470075000000    -2.2099     
O2       O      0.311762500000     0.800050000000     0.057955000000    -1.16081    
O3       O      0.384610000000     0.789590000000     0.042190000000    -1.30462    
O4       O      0.362650000000     0.697766666667     0.189835000000    -1.52042    
O5       O      0.445690000000     0.704446666667     0.199710000000    -1.36863    
C1       C      0.357442500000     0.782330000000     0.066910000000     0.787751   
C2       C      0.388610000000     0.754986666667     0.111015000000    -0.131926   
C3       C      0.363945000000     0.742640000000     0.136905000000    -0.355006   
C4       C      0.394672500000     0.713663333333     0.180200000000     1.23609    
H2       H      0.432420000000     0.744056666667     0.121530000000     0.0406641  
H3       H      0.319430000000     0.752623333333     0.125810000000     0.0989647  
H1       H      0.269262500000     0.824806666667     0.434670000000     0.344226   
Al1      Al     0.375000000000     0.666666666667     0.250000000000     5.86518    
Al2      Al     0.250000000000     0.666666666667     0.250000000000     5.22206    
O1       O      0.454970000000     0.672436666667     0.279925000000    -2.2099     
O2       O      0.438237500000     0.966716666667     0.192045000000    -1.16081    
O3       O      0.365390000000     0.956256666667     0.207810000000    -1.30462    
O4       O      0.387350000000     0.864433333333     0.060165000000    -1.52042    
O5       O      0.304310000000     0.871113333333     0.050290000000    -1.36863    
C1       C      0.392557500000     0.948996666667     0.183090000000     0.787751   
C2       C      0.361390000000     0.921653333333     0.138985000000    -0.131926   
C3       C      0.386055000000     0.909306666667     0.113095000000    -0.355006   
C4       C      0.355327500000     0.880330000000     0.069800000000     1.23609    
H2       H      0.317580000000     0.910723333333     0.128470000000     0.0406641  
H3       H      0.430570000000     0.919290000000     0.124190000000     0.0989647  
H1       H      0.480737500000     0.991473333333     0.315330000000     0.344226   
O1       O      0.454970000000     0.827563333333     0.029925000000    -2.2099     
O2       O      0.438237500000     0.866616666667     0.442045000000    -1.16081    
O3       O      0.365390000000     0.877076666667     0.457810000000    -1.30462    
O4       O      0.387350000000     0.968900000000     0.310165000000    -1.52042    
O5       O      0.304310000000     0.962220000000     0.300290000000    -1.36863    
C1       C      0.392557500000     0.884336666667     0.433090000000     0.787751   
C2       C      0.361390000000     0.911680000000     0.388985000000    -0.131926   
C3       C      0.386055000000     0.924026666667     0.363095000000    -0.355006   
C4       C      0.355327500000     0.953003333333     0.319800000000     1.23609    
H2       H      0.317580000000     0.922610000000     0.378470000000     0.0406641  
H3       H      0.430570000000     0.914043333333     0.374190000000     0.0989647  
H1       H      0.480737500000     0.841860000000     0.065330000000     0.344226   
O1       O      0.295030000000     0.994230000000     0.220075000000    -2.2099     
O2       O      0.311762500000     0.699950000000     0.307955000000    -1.16081    
O3       O      0.384610000000     0.710410000000     0.292190000000    -1.30462    
O4       O      0.362650000000     0.802233333333     0.439835000000    -1.52042    
O5       O      0.445690000000     0.795553333333     0.449710000000    -1.36863    
C1       C      0.357442500000     0.717670000000     0.316910000000     0.787751   
C2       C      0.388610000000     0.745013333333     0.361015000000    -0.131926   
C3       C      0.363945000000     0.757360000000     0.386905000000    -0.355006   
C4       C      0.394672500000     0.786336666667     0.430200000000     1.23609    
H2       H      0.432420000000     0.755943333333     0.371530000000     0.0406641  
H3       H      0.319430000000     0.747376666667     0.375810000000     0.0989647  
H1       H      0.269262500000     0.675193333333     0.184670000000     0.344226   
Al1      Al     0.375000000000     0.833333333333     0.500000000000     5.86518    
Al2      Al     0.250000000000     0.833333333333     0.500000000000     5.22206    
O1       O      0.295030000000     0.839103333333     0.970075000000    -2.2099     
O2       O      0.311762500000     0.800050000000     0.557955000000    -1.16081    
O3       O      0.384610000000     0.789590000000     0.542190000000    -1.30462    
O4       O      0.362650000000     0.697766666667     0.689835000000    -1.52042    
O5       O      0.445690000000     0.704446666667     0.699710000000    -1.36863    
C1       C      0.357442500000     0.782330000000     0.566910000000     0.787751   
C2       C      0.388610000000     0.754986666667     0.611015000000    -0.131926   
C3       C      0.363945000000     0.742640000000     0.636905000000    -0.355006   
C4       C      0.394672500000     0.713663333333     0.680200000000     1.23609    
H2       H      0.432420000000     0.744056666667     0.621530000000     0.0406641  
H3       H      0.319430000000     0.752623333333     0.625810000000     0.0989647  
H1       H      0.269262500000     0.824806666667     0.934670000000     0.344226   
Al1      Al     0.375000000000     0.666666666667     0.750000000000     5.86518    
Al2      Al     0.250000000000     0.666666666667     0.750000000000     5.22206    
O1       O      0.454970000000     0.672436666667     0.779925000000    -2.2099     
O2       O      0.438237500000     0.966716666667     0.692045000000    -1.16081    
O3       O      0.365390000000     0.956256666667     0.707810000000    -1.30462    
O4       O      0.387350000000     0.864433333333     0.560165000000    -1.52042    
O5       O      0.304310000000     0.871113333333     0.550290000000    -1.36863    
C1       C      0.392557500000     0.948996666667     0.683090000000     0.787751   
C2       C      0.361390000000     0.921653333333     0.638985000000    -0.131926   
C3       C      0.386055000000     0.909306666667     0.613095000000    -0.355006   
C4       C      0.355327500000     0.880330000000     0.569800000000     1.23609    
H2       H      0.317580000000     0.910723333333     0.628470000000     0.0406641  
H3       H      0.430570000000     0.919290000000     0.624190000000     0.0989647  
H1       H      0.480737500000     0.991473333333     0.815330000000     0.344226   
O1       O      0.454970000000     0.827563333333     0.529925000000    -2.2099     
O2       O      0.438237500000     0.866616666667     0.942045000000    -1.16081    
O3       O      0.365390000000     0.877076666667     0.957810000000    -1.30462    
O4       O      0.387350000000     0.968900000000     0.810165000000    -1.52042    
O5       O      0.304310000000     0.962220000000     0.800290000000    -1.36863    
C1       C      0.392557500000     0.884336666667     0.933090000000     0.787751   
C2       C      0.361390000000     0.911680000000     0.888985000000    -0.131926   
C3       C      0.386055000000     0.924026666667     0.863095000000    -0.355006   
C4       C      0.355327500000     0.953003333333     0.819800000000     1.23609    
H2       H      0.317580000000     0.922610000000     0.878470000000     0.0406641  
H3       H      0.430570000000     0.914043333333     0.874190000000     0.0989647  
H1       H      0.480737500000     0.841860000000     0.565330000000     0.344226   
O1       O      0.295030000000     0.994230000000     0.720075000000    -2.2099     
O2       O      0.311762500000     0.699950000000     0.807955000000    -1.16081    
O3       O      0.384610000000     0.710410000000     0.792190000000    -1.30462    
O4       O      0.362650000000     0.802233333333     0.939835000000    -1.52042    
O5       O      0.445690000000     0.795553333333     0.949710000000    -1.36863    
C1       C      0.357442500000     0.717670000000     0.816910000000     0.787751   
C2       C      0.388610000000     0.745013333333     0.861015000000    -0.131926   
C3       C      0.363945000000     0.757360000000     0.886905000000    -0.355006   
C4       C      0.394672500000     0.786336666667     0.930200000000     1.23609    
H2       H      0.432420000000     0.755943333333     0.871530000000     0.0406641  
H3       H      0.319430000000     0.747376666667     0.875810000000     0.0989647  
H1       H      0.269262500000     0.675193333333     0.684670000000     0.344226   
Al1      Al     0.625000000000     0.166666666667     0.000000000000     5.86518    
Al2      Al     0.500000000000     0.166666666667     0.000000000000     5.22206    
O1       O      0.545030000000     0.172436666667     0.470075000000    -2.2099     
O2       O      0.561762500000     0.133383333333     0.057955000000    -1.16081    
O3       O      0.634610000000     0.122923333333     0.042190000000    -1.30462    
O4       O      0.612650000000     0.031100000000     0.189835000000    -1.52042    
O5       O      0.695690000000     0.037780000000     0.199710000000    -1.36863    
C1       C      0.607442500000     0.115663333333     0.066910000000     0.787751   
C2       C      0.638610000000     0.088320000000     0.111015000000    -0.131926   
C3       C      0.613945000000     0.075973333333     0.136905000000    -0.355006   
C4       C      0.644672500000     0.046996666667     0.180200000000     1.23609    
H2       H      0.682420000000     0.077390000000     0.121530000000     0.0406641  
H3       H      0.569430000000     0.085956666667     0.125810000000     0.0989647  
H1       H      0.519262500000     0.158140000000     0.434670000000     0.344226   
Al1      Al     0.625000000000     0.000000000000     0.250000000000     5.86518    
Al2      Al     0.500000000000     0.000000000000     0.250000000000     5.22206    
O1       O      0.704970000000     0.005770000000     0.279925000000    -2.2099     
O2       O      0.688237500000     0.300050000000     0.192045000000    -1.16081    
O3       O      0.615390000000     0.289590000000     0.207810000000    -1.30462    
O4       O      0.637350000000     0.197766666667     0.060165000000    -1.52042    
O5       O      0.554310000000     0.204446666667     0.050290000000    -1.36863    
C1       C      0.642557500000     0.282330000000     0.183090000000     0.787751   
C2       C      0.611390000000     0.254986666667     0.138985000000    -0.131926   
C3       C      0.636055000000     0.242640000000     0.113095000000    -0.355006   
C4       C      0.605327500000     0.213663333333     0.069800000000     1.23609    
H2       H      0.567580000000     0.244056666667     0.128470000000     0.0406641  
H3       H      0.680570000000     0.252623333333     0.124190000000     0.0989647  
H1       H      0.730737500000     0.324806666667     0.315330000000     0.344226   
O1       O      0.704970000000     0.160896666667     0.029925000000    -2.2099     
O2       O      0.688237500000     0.199950000000     0.442045000000    -1.16081    
O3       O      0.615390000000     0.210410000000     0.457810000000    -1.30462    
O4       O      0.637350000000     0.302233333333     0.310165000000    -1.52042    
O5       O      0.554310000000     0.295553333333     0.300290000000    -1.36863    
C1       C      0.642557500000     0.217670000000     0.433090000000     0.787751   
C2       C      0.611390000000     0.245013333333     0.388985000000    -0.131926   
C3       C      0.636055000000     0.257360000000     0.363095000000    -0.355006   
C4       C      0.605327500000     0.286336666667     0.319800000000     1.23609    
H2       H      0.567580000000     0.255943333333     0.378470000000     0.0406641  
H3       H      0.680570000000     0.247376666667     0.374190000000     0.0989647  
H1       H      0.730737500000     0.175193333333     0.065330000000     0.344226   
O1       O      0.545030000000     0.327563333333     0.220075000000    -2.2099     
O2       O      0.561762500000     0.033283333333     0.307955000000    -1.16081    
O3       O      0.634610000000     0.043743333333     0.292190000000    -1.30462    
O4       O      0.612650000000     0.135566666667     0.439835000000    -1.52042    
O5       O      0.695690000000     0.128886666667     0.449710000000    -1.36863    
C1       C      0.607442500000     0.051003333333     0.316910000000     0.787751   
C2       C      0.638610000000     0.078346666667     0.361015000000    -0.131926   
C3       C      0.613945000000     0.090693333333     0.386905000000    -0.355006   
C4       C      0.644672500000     0.119670000000     0.430200000000     1.23609    
H2       H      0.682420000000     0.089276666667     0.371530000000     0.0406641  
H3       H      0.569430000000     0.080710000000     0.375810000000     0.0989647  
H1       H      0.519262500000     0.008526666667     0.184670000000     0.344226   
Al1      Al     0.625000000000     0.166666666667     0.500000000000     5.86518    
Al2      Al     0.500000000000     0.166666666667     0.500000000000     5.22206    
O1       O      0.545030000000     0.172436666667     0.970075000000    -2.2099     
O2       O      0.561762500000     0.133383333333     0.557955000000    -1.16081    
O3       O      0.634610000000     0.122923333333     0.542190000000    -1.30462    
O4       O      0.612650000000     0.031100000000     0.689835000000    -1.52042    
O5       O      0.695690000000     0.037780000000     0.699710000000    -1.36863    
C1       C      0.607442500000     0.115663333333     0.566910000000     0.787751   
C2       C      0.638610000000     0.088320000000     0.611015000000    -0.131926   
C3       C      0.613945000000     0.075973333333     0.636905000000    -0.355006   
C4       C      0.644672500000     0.046996666667     0.680200000000     1.23609    
H2       H      0.682420000000     0.077390000000     0.621530000000     0.0406641  
H3       H      0.569430000000     0.085956666667     0.625810000000     0.0989647  
H1       H      0.519262500000     0.158140000000     0.934670000000     0.344226   
Al1      Al     0.625000000000     0.000000000000     0.750000000000     5.86518    
Al2      Al     0.500000000000     0.000000000000     0.750000000000     5.22206    
O1       O      0.704970000000     0.005770000000     0.779925000000    -2.2099     
O2       O      0.688237500000     0.300050000000     0.692045000000    -1.16081    
O3       O      0.615390000000     0.289590000000     0.707810000000    -1.30462    
O4       O      0.637350000000     0.197766666667     0.560165000000    -1.52042    
O5       O      0.554310000000     0.204446666667     0.550290000000    -1.36863    
C1       C      0.642557500000     0.282330000000     0.683090000000     0.787751   
C2       C      0.611390000000     0.254986666667     0.638985000000    -0.131926   
C3       C      0.636055000000     0.242640000000     0.613095000000    -0.355006   
C4       C      0.605327500000     0.213663333333     0.569800000000     1.23609    
H2       H      0.567580000000     0.244056666667     0.628470000000     0.0406641  
H3       H      0.680570000000     0.252623333333     0.624190000000     0.0989647  
H1       H      0.730737500000     0.324806666667     0.815330000000     0.344226   
O1       O      0.704970000000     0.160896666667     0.529925000000    -2.2099     
O2       O      0.688237500000     0.199950000000     0.942045000000    -1.16081    
O3       O      0.615390000000     0.210410000000     0.957810000000    -1.30462    
O4       O      0.637350000000     0.302233333333     0.810165000000    -1.52042    
O5       O      0.554310000000     0.295553333333     0.800290000000    -1.36863    
C1       C      0.642557500000     0.217670000000     0.933090000000     0.787751   
C2       C      0.611390000000     0.245013333333     0.888985000000    -0.131926   
C3       C      0.636055000000     0.257360000000     0.863095000000    -0.355006   
C4       C      0.605327500000     0.286336666667     0.819800000000     1.23609    
H2       H      0.567580000000     0.255943333333     0.878470000000     0.0406641  
H3       H      0.680570000000     0.247376666667     0.874190000000     0.0989647  
H1       H      0.730737500000     0.175193333333     0.565330000000     0.344226   
O1       O      0.545030000000     0.327563333333     0.720075000000    -2.2099     
O2       O      0.561762500000     0.033283333333     0.807955000000    -1.16081    
O3       O      0.634610000000     0.043743333333     0.792190000000    -1.30462    
O4       O      0.612650000000     0.135566666667     0.939835000000    -1.52042    
O5       O      0.695690000000     0.128886666667     0.949710000000    -1.36863    
C1       C      0.607442500000     0.051003333333     0.816910000000     0.787751   
C2       C      0.638610000000     0.078346666667     0.861015000000    -0.131926   
C3       C      0.613945000000     0.090693333333     0.886905000000    -0.355006   
C4       C      0.644672500000     0.119670000000     0.930200000000     1.23609    
H2       H      0.682420000000     0.089276666667     0.871530000000     0.0406641  
H3       H      0.569430000000     0.080710000000     0.875810000000     0.0989647  
H1       H      0.519262500000     0.008526666667     0.684670000000     0.344226   
Al1      Al     0.625000000000     0.500000000000     0.000000000000     5.86518    
Al2      Al     0.500000000000     0.500000000000     0.000000000000     5.22206    
O1       O      0.545030000000     0.505770000000     0.470075000000    -2.2099     
O2       O      0.561762500000     0.466716666667     0.057955000000    -1.16081    
O3       O      0.634610000000     0.456256666667     0.042190000000    -1.30462    
O4       O      0.612650000000     0.364433333333     0.189835000000    -1.52042    
O5       O      0.695690000000     0.371113333333     0.199710000000    -1.36863    
C1       C      0.607442500000     0.448996666667     0.066910000000     0.787751   
C2       C      0.638610000000     0.421653333333     0.111015000000    -0.131926   
C3       C      0.613945000000     0.409306666667     0.136905000000    -0.355006   
C4       C      0.644672500000     0.380330000000     0.180200000000     1.23609    
H2       H      0.682420000000     0.410723333333     0.121530000000     0.0406641  
H3       H      0.569430000000     0.419290000000     0.125810000000     0.0989647  
H1       H      0.519262500000     0.491473333333     0.434670000000     0.344226   
Al1      Al     0.625000000000     0.333333333333     0.250000000000     5.86518    
Al2      Al     0.500000000000     0.333333333333     0.250000000000     5.22206    
O1       O      0.704970000000     0.339103333333     0.279925000000    -2.2099     
O2       O      0.688237500000     0.633383333333     0.192045000000    -1.16081    
O3       O      0.615390000000     0.622923333333     0.207810000000    -1.30462    
O4       O      0.637350000000     0.531100000000     0.060165000000    -1.52042    
O5       O      0.554310000000     0.537780000000     0.050290000000    -1.36863    
C1       C      0.642557500000     0.615663333333     0.183090000000     0.787751   
C2       C      0.611390000000     0.588320000000     0.138985000000    -0.131926   
C3       C      0.636055000000     0.575973333333     0.113095000000    -0.355006   
C4       C      0.605327500000     0.546996666667     0.069800000000     1.23609    
H2       H      0.567580000000     0.577390000000     0.128470000000     0.0406641  
H3       H      0.680570000000     0.585956666667     0.124190000000     0.0989647  
H1       H      0.730737500000     0.658140000000     0.315330000000     0.344226   
O1       O      0.704970000000     0.494230000000     0.029925000000    -2.2099     
O2       O      0.688237500000     0.533283333333     0.442045000000    -1.16081    
O3       O      0.615390000000     0.543743333333     0.457810000000    -1.30462    
O4       O      0.637350000000     0.635566666667     0.310165000000    -1.52042    
O5       O      0.554310000000     0.628886666667     0.300290000000    -1.36863    
C1       C      0.642557500000     0.551003333333     0.433090000000     0.787751   
C2       C      0.611390000000     0.578346666667     0.388985000000    -0.131926   
C3       C      0.636055000000     0.590693333333     0.363095000000    -0.355006   
C4       C      0.605327500000     0.619670000000     0.319800000000     1.23609    
H2       H      0.567580000000     0.589276666667     0.378470000000     0.0406641  
H3       H      0.680570000000     0.580710000000     0.374190000000     0.0989647  
H1       H      0.730737500000     0.508526666667     0.065330000000     0.344226   
O1       O      0.545030000000     0.660896666667     0.220075000000    -2.2099     
O2       O      0.561762500000     0.366616666667     0.307955000000    -1.16081    
O3       O      0.634610000000     0.377076666667     0.292190000000    -1.30462    
O4       O      0.612650000000     0.468900000000     0.439835000000    -1.52042    
O5       O      0.695690000000     0.462220000000     0.449710000000    -1.36863    
C1       C      0.607442500000     0.384336666667     0.316910000000     0.787751   
C2       C      0.638610000000     0.411680000000     0.361015000000    -0.131926   
C3       C      0.613945000000     0.424026666667     0.386905000000    -0.355006   
C4       C      0.644672500000     0.453003333333     0.430200000000     1.23609    
H2       H      0.682420000000     0.422610000000     0.371530000000     0.0406641  
H3       H      0.569430000000     0.414043333333     0.375810000000     0.0989647  
H1       H      0.519262500000     0.341860000000     0.184670000000     0.344226   
Al1      Al     0.625000000000     0.500000000000     0.500000000000     5.86518    
Al2      Al     0.500000000000     0.500000000000     0.500000000000     5.22206    
O1       O      0.545030000000     0.505770000000     0.970075000000    -2.2099     
O2       O      0.561762500000     0.466716666667     0.557955000000    -1.16081    
O3       O      0.634610000000     0.456256666667     0.542190000000    -1.30462    
O4       O      0.612650000000     0.364433333333     0.689835000000    -1.52042    
O5       O      0.695690000000     0.371113333333     0.699710000000    -1.36863    
C1       C      0.607442500000     0.448996666667     0.566910000000     0.787751   
C2       C      0.638610000000     0.421653333333     0.611015000000    -0.131926   
C3       C      0.613945000000     0.409306666667     0.636905000000    -0.355006   
C4       C      0.644672500000     0.380330000000     0.680200000000     1.23609    
H2       H      0.682420000000     0.410723333333     0.621530000000     0.0406641  
H3       H      0.569430000000     0.419290000000     0.625810000000     0.0989647  
H1       H      0.519262500000     0.491473333333     0.934670000000     0.344226   
Al1      Al     0.625000000000     0.333333333333     0.750000000000     5.86518    
Al2      Al     0.500000000000     0.333333333333     0.750000000000     5.22206    
O1       O      0.704970000000     0.339103333333     0.779925000000    -2.2099     
O2       O      0.688237500000     0.633383333333     0.692045000000    -1.16081    
O3       O      0.615390000000     0.622923333333     0.707810000000    -1.30462    
O4       O      0.637350000000     0.531100000000     0.560165000000    -1.52042    
O5       O      0.554310000000     0.537780000000     0.550290000000    -1.36863    
C1       C      0.642557500000     0.615663333333     0.683090000000     0.787751   
C2       C      0.611390000000     0.588320000000     0.638985000000    -0.131926   
C3       C      0.636055000000     0.575973333333     0.613095000000    -0.355006   
C4       C      0.605327500000     0.546996666667     0.569800000000     1.23609    
H2       H      0.567580000000     0.577390000000     0.628470000000     0.0406641  
H3       H      0.680570000000     0.585956666667     0.624190000000     0.0989647  
H1       H      0.730737500000     0.658140000000     0.815330000000     0.344226   
O1       O      0.704970000000     0.494230000000     0.529925000000    -2.2099     
O2       O      0.688237500000     0.533283333333     0.942045000000    -1.16081    
O3       O      0.615390000000     0.543743333333     0.957810000000    -1.30462    
O4       O      0.637350000000     0.635566666667     0.810165000000    -1.52042    
O5       O      0.554310000000     0.628886666667     0.800290000000    -1.36863    
C1       C      0.642557500000     0.551003333333     0.933090000000     0.787751   
C2       C      0.611390000000     0.578346666667     0.888985000000    -0.131926   
C3       C      0.636055000000     0.590693333333     0.863095000000    -0.355006   
C4       C      0.605327500000     0.619670000000     0.819800000000     1.23609    
H2       H      0.567580000000     0.589276666667     0.878470000000     0.0406641  
H3       H      0.680570000000     0.580710000000     0.874190000000     0.0989647  
H1       H      0.730737500000     0.508526666667     0.565330000000     0.344226   
O1       O      0.545030000000     0.660896666667     0.720075000000    -2.2099     
O2       O      0.561762500000     0.366616666667     0.807955000000    -1.16081    
O3       O      0.634610000000     0.377076666667     0.792190000000    -1.30462    
O4       O      0.612650000000     0.468900000000     0.939835000000    -1.52042    
O5       O      0.695690000000     0.462220000000     0.949710000000    -1.36863    
C1       C      0.607442500000     0.384336666667     0.816910000000     0.787751   
C2       C      0.638610000000     0.411680000000     0.861015000000    -0.131926   
C3       C      0.613945000000     0.424026666667     0.886905000000    -0.355006   
C4       C      0.644672500000     0.453003333333     0.930200000000     1.23609    
H2       H      0.682420000000     0.422610000000     0.871530000000     0.0406641  
H3       H      0.569430000000     0.414043333333     0.875810000000     0.0989647  
H1       H      0.519262500000     0.341860000000     0.684670000000     0.344226   
Al1      Al     0.625000000000     0.833333333333     0.000000000000     5.86518    
Al2      Al     0.500000000000     0.833333333333     0.000000000000     5.22206    
O1       O      0.545030000000     0.839103333333     0.470075000000    -2.2099     
O2       O      0.561762500000     0.800050000000     0.057955000000    -1.16081    
O3       O      0.634610000000     0.789590000000     0.042190000000    -1.30462    
O4       O      0.612650000000     0.697766666667     0.189835000000    -1.52042    
O5       O      0.695690000000     0.704446666667     0.199710000000    -1.36863    
C1       C      0.607442500000     0.782330000000     0.066910000000     0.787751   
C2       C      0.638610000000     0.754986666667     0.111015000000    -0.131926   
C3       C      0.613945000000     0.742640000000     0.136905000000    -0.355006   
C4       C      0.644672500000     0.713663333333     0.180200000000     1.23609    
H2       H      0.682420000000     0.744056666667     0.121530000000     0.0406641  
H3       H      0.569430000000     0.752623333333     0.125810000000     0.0989647  
H1       H      0.519262500000     0.824806666667     0.434670000000     0.344226   
Al1      Al     0.625000000000     0.666666666667     0.250000000000     5.86518    
Al2      Al     0.500000000000     0.666666666667     0.250000000000     5.22206    
O1       O      0.704970000000     0.672436666667     0.279925000000    -2.2099     
O2       O      0.688237500000     0.966716666667     0.192045000000    -1.16081    
O3       O      0.615390000000     0.956256666667     0.207810000000    -1.30462    
O4       O      0.637350000000     0.864433333333     0.060165000000    -1.52042    
O5       O      0.554310000000     0.871113333333     0.050290000000    -1.36863    
C1       C      0.642557500000     0.948996666667     0.183090000000     0.787751   
C2       C      0.611390000000     0.921653333333     0.138985000000    -0.131926   
C3       C      0.636055000000     0.909306666667     0.113095000000    -0.355006   
C4       C      0.605327500000     0.880330000000     0.069800000000     1.23609    
H2       H      0.567580000000     0.910723333333     0.128470000000     0.0406641  
H3       H      0.680570000000     0.919290000000     0.124190000000     0.0989647  
H1       H      0.730737500000     0.991473333333     0.315330000000     0.344226   
O1       O      0.704970000000     0.827563333333     0.029925000000    -2.2099     
O2       O      0.688237500000     0.866616666667     0.442045000000    -1.16081    
O3       O      0.615390000000     0.877076666667     0.457810000000    -1.30462    
O4       O      0.637350000000     0.968900000000     0.310165000000    -1.52042    
O5       O      0.554310000000     0.962220000000     0.300290000000    -1.36863    
C1       C      0.642557500000     0.884336666667     0.433090000000     0.787751   
C2       C      0.611390000000     0.911680000000     0.388985000000    -0.131926   
C3       C      0.636055000000     0.924026666667     0.363095000000    -0.355006   
C4       C      0.605327500000     0.953003333333     0.319800000000     1.23609    
H2       H      0.567580000000     0.922610000000     0.378470000000     0.0406641  
H3       H      0.680570000000     0.914043333333     0.374190000000     0.0989647  
H1       H      0.730737500000     0.841860000000     0.065330000000     0.344226   
O1       O      0.545030000000     0.994230000000     0.220075000000    -2.2099     
O2       O      0.561762500000     0.699950000000     0.307955000000    -1.16081    
O3       O      0.634610000000     0.710410000000     0.292190000000    -1.30462    
O4       O      0.612650000000     0.802233333333     0.439835000000    -1.52042    
O5       O      0.695690000000     0.795553333333     0.449710000000    -1.36863    
C1       C      0.607442500000     0.717670000000     0.316910000000     0.787751   
C2       C      0.638610000000     0.745013333333     0.361015000000    -0.131926   
C3       C      0.613945000000     0.757360000000     0.386905000000    -0.355006   
C4       C      0.644672500000     0.786336666667     0.430200000000     1.23609    
H2       H      0.682420000000     0.755943333333     0.371530000000     0.0406641  
H3       H      0.569430000000     0.747376666667     0.375810000000     0.0989647  
H1       H      0.519262500000     0.675193333333     0.184670000000     0.344226   
Al1      Al     0.625000000000     0.833333333333     0.500000000000     5.86518    
Al2      Al     0.500000000000     0.833333333333     0.500000000000     5.22206    
O1       O      0.545030000000     0.839103333333     0.970075000000    -2.2099     
O2       O      0.561762500000     0.800050000000     0.557955000000    -1.16081    
O3       O      0.634610000000     0.789590000000     0.542190000000    -1.30462    
O4       O      0.612650000000     0.697766666667     0.689835000000    -1.52042    
O5       O      0.695690000000     0.704446666667     0.699710000000    -1.36863    
C1       C      0.607442500000     0.782330000000     0.566910000000     0.787751   
C2       C      0.638610000000     0.754986666667     0.611015000000    -0.131926   
C3       C      0.613945000000     0.742640000000     0.636905000000    -0.355006   
C4       C      0.644672500000     0.713663333333     0.680200000000     1.23609    
H2       H      0.682420000000     0.744056666667     0.621530000000     0.0406641  
H3       H      0.569430000000     0.752623333333     0.625810000000     0.0989647  
H1       H      0.519262500000     0.824806666667     0.934670000000     0.344226   
Al1      Al     0.625000000000     0.666666666667     0.750000000000     5.86518    
Al2      Al     0.500000000000     0.666666666667     0.750000000000     5.22206    
O1       O      0.704970000000     0.672436666667     0.779925000000    -2.2099     
O2       O      0.688237500000     0.966716666667     0.692045000000    -1.16081    
O3       O      0.615390000000     0.956256666667     0.707810000000    -1.30462    
O4       O      0.637350000000     0.864433333333     0.560165000000    -1.52042    
O5       O      0.554310000000     0.871113333333     0.550290000000    -1.36863    
C1       C      0.642557500000     0.948996666667     0.683090000000     0.787751   
C2       C      0.611390000000     0.921653333333     0.638985000000    -0.131926   
C3       C      0.636055000000     0.909306666667     0.613095000000    -0.355006   
C4       C      0.605327500000     0.880330000000     0.569800000000     1.23609    
H2       H      0.567580000000     0.910723333333     0.628470000000     0.0406641  
H3       H      0.680570000000     0.919290000000     0.624190000000     0.0989647  
H1       H      0.730737500000     0.991473333333     0.815330000000     0.344226   
O1       O      0.704970000000     0.827563333333     0.529925000000    -2.2099     
O2       O      0.688237500000     0.866616666667     0.942045000000    -1.16081    
O3       O      0.615390000000     0.877076666667     0.957810000000    -1.30462    
O4       O      0.637350000000     0.968900000000     0.810165000000    -1.52042    
O5       O      0.554310000000     0.962220000000     0.800290000000    -1.36863    
C1       C      0.642557500000     0.884336666667     0.933090000000     0.787751   
C2       C      0.611390000000     0.911680000000     0.888985000000    -0.131926   
C3       C      0.636055000000     0.924026666667     0.863095000000    -0.355006   
C4       C      0.605327500000     0.953003333333     0.819800000000     1.23609    
H2       H      0.567580000000     0.922610000000     0.878470000000     0.0406641  
H3       H      0.680570000000     0.914043333333     0.874190000000     0.0989647  
H1       H      0.730737500000     0.841860000000     0.565330000000     0.344226   
O1       O      0.545030000000     0.994230000000     0.720075000000    -2.2099     
O2       O      0.561762500000     0.699950000000     0.807955000000    -1.16081    
O3       O      0.634610000000     0.710410000000     0.792190000000    -1.30462    
O4       O      0.612650000000     0.802233333333     0.939835000000    -1.52042    
O5       O      0.695690000000     0.795553333333     0.949710000000    -1.36863    
C1       C      0.607442500000     0.717670000000     0.816910000000     0.787751   
C2       C      0.638610000000     0.745013333333     0.861015000000    -0.131926   
C3       C      0.613945000000     0.757360000000     0.886905000000    -0.355006   
C4       C      0.644672500000     0.786336666667     0.930200000000     1.23609    
H2       H      0.682420000000     0.755943333333     0.871530000000     0.0406641  
H3       H      0.569430000000     0.747376666667     0.875810000000     0.0989647  
H1       H      0.519262500000     0.675193333333     0.684670000000     0.344226   
Al1      Al     0.875000000000     0.166666666667     0.000000000000     5.86518    
Al2      Al     0.750000000000     0.166666666667     0.000000000000     5.22206    
O1       O      0.795030000000     0.172436666667     0.470075000000    -2.2099     
O2       O      0.811762500000     0.133383333333     0.057955000000    -1.16081    
O3       O      0.884610000000     0.122923333333     0.042190000000    -1.30462    
O4       O      0.862650000000     0.031100000000     0.189835000000    -1.52042    
O5       O      0.945690000000     0.037780000000     0.199710000000    -1.36863    
C1       C      0.857442500000     0.115663333333     0.066910000000     0.787751   
C2       C      0.888610000000     0.088320000000     0.111015000000    -0.131926   
C3       C      0.863945000000     0.075973333333     0.136905000000    -0.355006   
C4       C      0.894672500000     0.046996666667     0.180200000000     1.23609    
H2       H      0.932420000000     0.077390000000     0.121530000000     0.0406641  
H3       H      0.819430000000     0.085956666667     0.125810000000     0.0989647  
H1       H      0.769262500000     0.158140000000     0.434670000000     0.344226   
Al1      Al     0.875000000000     0.000000000000     0.250000000000     5.86518    
Al2      Al     0.750000000000     0.000000000000     0.250000000000     5.22206    
O1       O      0.954970000000     0.005770000000     0.279925000000    -2.2099     
O2       O      0.938237500000     0.300050000000     0.192045000000    -1.16081    
O3       O      0.865390000000     0.289590000000     0.207810000000    -1.30462    
O4       O      0.887350000000     0.197766666667     0.060165000000    -1.52042    
O5       O      0.804310000000     0.204446666667     0.050290000000    -1.36863    
C1       C      0.892557500000     0.282330000000     0.183090000000     0.787751   
C2       C      0.861390000000     0.254986666667     0.138985000000    -0.131926   
C3       C      0.886055000000     0.242640000000     0.113095000000    -0.355006   
C4       C      0.855327500000     0.213663333333     0.069800000000     1.23609    
H2       H      0.817580000000     0.244056666667     0.128470000000     0.0406641  
H3       H      0.930570000000     0.252623333333     0.124190000000     0.0989647  
H1       H      0.980737500000     0.324806666667     0.315330000000     0.344226   
O1       O      0.954970000000     0.160896666667     0.029925000000    -2.2099     
O2       O      0.938237500000     0.199950000000     0.442045000000    -1.16081    
O3       O      0.865390000000     0.210410000000     0.457810000000    -1.30462    
O4       O      0.887350000000     0.302233333333     0.310165000000    -1.52042    
O5       O      0.804310000000     0.295553333333     0.300290000000    -1.36863    
C1       C      0.892557500000     0.217670000000     0.433090000000     0.787751   
C2       C      0.861390000000     0.245013333333     0.388985000000    -0.131926   
C3       C      0.886055000000     0.257360000000     0.363095000000    -0.355006   
C4       C      0.855327500000     0.286336666667     0.319800000000     1.23609    
H2       H      0.817580000000     0.255943333333     0.378470000000     0.0406641  
H3       H      0.930570000000     0.247376666667     0.374190000000     0.0989647  
H1       H      0.980737500000     0.175193333333     0.065330000000     0.344226   
O1       O      0.795030000000     0.327563333333     0.220075000000    -2.2099     
O2       O      0.811762500000     0.033283333333     0.307955000000    -1.16081    
O3       O      0.884610000000     0.043743333333     0.292190000000    -1.30462    
O4       O      0.862650000000     0.135566666667     0.439835000000    -1.52042    
O5       O      0.945690000000     0.128886666667     0.449710000000    -1.36863    
C1       C      0.857442500000     0.051003333333     0.316910000000     0.787751   
C2       C      0.888610000000     0.078346666667     0.361015000000    -0.131926   
C3       C      0.863945000000     0.090693333333     0.386905000000    -0.355006   
C4       C      0.894672500000     0.119670000000     0.430200000000     1.23609    
H2       H      0.932420000000     0.089276666667     0.371530000000     0.0406641  
H3       H      0.819430000000     0.080710000000     0.375810000000     0.0989647  
H1       H      0.769262500000     0.008526666667     0.184670000000     0.344226   
Al1      Al     0.875000000000     0.166666666667     0.500000000000     5.86518    
Al2      Al     0.750000000000     0.166666666667     0.500000000000     5.22206    
O1       O      0.795030000000     0.172436666667     0.970075000000    -2.2099     
O2       O      0.811762500000     0.133383333333     0.557955000000    -1.16081    
O3       O      0.884610000000     0.122923333333     0.542190000000    -1.30462    
O4       O      0.862650000000     0.031100000000     0.689835000000    -1.52042    
O5       O      0.945690000000     0.037780000000     0.699710000000    -1.36863    
C1       C      0.857442500000     0.115663333333     0.566910000000     0.787751   
C2       C      0.888610000000     0.088320000000     0.611015000000    -0.131926   
C3       C      0.863945000000     0.075973333333     0.636905000000    -0.355006   
C4       C      0.894672500000     0.046996666667     0.680200000000     1.23609    
H2       H      0.932420000000     0.077390000000     0.621530000000     0.0406641  
H3       H      0.819430000000     0.085956666667     0.625810000000     0.0989647  
H1       H      0.769262500000     0.158140000000     0.934670000000     0.344226   
Al1      Al     0.875000000000     0.000000000000     0.750000000000     5.86518    
Al2      Al     0.750000000000     0.000000000000     0.750000000000     5.22206    
O1       O      0.954970000000     0.005770000000     0.779925000000    -2.2099     
O2       O      0.938237500000     0.300050000000     0.692045000000    -1.16081    
O3       O      0.865390000000     0.289590000000     0.707810000000    -1.30462    
O4       O      0.887350000000     0.197766666667     0.560165000000    -1.52042    
O5       O      0.804310000000     0.204446666667     0.550290000000    -1.36863    
C1       C      0.892557500000     0.282330000000     0.683090000000     0.787751   
C2       C      0.861390000000     0.254986666667     0.638985000000    -0.131926   
C3       C      0.886055000000     0.242640000000     0.613095000000    -0.355006   
C4       C      0.855327500000     0.213663333333     0.569800000000     1.23609    
H2       H      0.817580000000     0.244056666667     0.628470000000     0.0406641  
H3       H      0.930570000000     0.252623333333     0.624190000000     0.0989647  
H1       H      0.980737500000     0.324806666667     0.815330000000     0.344226   
O1       O      0.954970000000     0.160896666667     0.529925000000    -2.2099     
O2       O      0.938237500000     0.199950000000     0.942045000000    -1.16081    
O3       O      0.865390000000     0.210410000000     0.957810000000    -1.30462    
O4       O      0.887350000000     0.302233333333     0.810165000000    -1.52042    
O5       O      0.804310000000     0.295553333333     0.800290000000    -1.36863    
C1       C      0.892557500000     0.217670000000     0.933090000000     0.787751   
C2       C      0.861390000000     0.245013333333     0.888985000000    -0.131926   
C3       C      0.886055000000     0.257360000000     0.863095000000    -0.355006   
C4       C      0.855327500000     0.286336666667     0.819800000000     1.23609    
H2       H      0.817580000000     0.255943333333     0.878470000000     0.0406641  
H3       H      0.930570000000     0.247376666667     0.874190000000     0.0989647  
H1       H      0.980737500000     0.175193333333     0.565330000000     0.344226   
O1       O      0.795030000000     0.327563333333     0.720075000000    -2.2099     
O2       O      0.811762500000     0.033283333333     0.807955000000    -1.16081    
O3       O      0.884610000000     0.043743333333     0.792190000000    -1.30462    
O4       O      0.862650000000     0.135566666667     0.939835000000    -1.52042    
O5       O      0.945690000000     0.128886666667     0.949710000000    -1.36863    
C1       C      0.857442500000     0.051003333333     0.816910000000     0.787751   
C2       C      0.888610000000     0.078346666667     0.861015000000    -0.131926   
C3       C      0.863945000000     0.090693333333     0.886905000000    -0.355006   
C4       C      0.894672500000     0.119670000000     0.930200000000     1.23609    
H2       H      0.932420000000     0.089276666667     0.871530000000     0.0406641  
H3       H      0.819430000000     0.080710000000     0.875810000000     0.0989647  
H1       H      0.769262500000     0.008526666667     0.684670000000     0.344226   
Al1      Al     0.875000000000     0.500000000000     0.000000000000     5.86518    
Al2      Al     0.750000000000     0.500000000000     0.000000000000     5.22206    
O1       O      0.795030000000     0.505770000000     0.470075000000    -2.2099     
O2       O      0.811762500000     0.466716666667     0.057955000000    -1.16081    
O3       O      0.884610000000     0.456256666667     0.042190000000    -1.30462    
O4       O      0.862650000000     0.364433333333     0.189835000000    -1.52042    
O5       O      0.945690000000     0.371113333333     0.199710000000    -1.36863    
C1       C      0.857442500000     0.448996666667     0.066910000000     0.787751   
C2       C      0.888610000000     0.421653333333     0.111015000000    -0.131926   
C3       C      0.863945000000     0.409306666667     0.136905000000    -0.355006   
C4       C      0.894672500000     0.380330000000     0.180200000000     1.23609    
H2       H      0.932420000000     0.410723333333     0.121530000000     0.0406641  
H3       H      0.819430000000     0.419290000000     0.125810000000     0.0989647  
H1       H      0.769262500000     0.491473333333     0.434670000000     0.344226   
Al1      Al     0.875000000000     0.333333333333     0.250000000000     5.86518    
Al2      Al     0.750000000000     0.333333333333     0.250000000000     5.22206    
O1       O      0.954970000000     0.339103333333     0.279925000000    -2.2099     
O2       O      0.938237500000     0.633383333333     0.192045000000    -1.16081    
O3       O      0.865390000000     0.622923333333     0.207810000000    -1.30462    
O4       O      0.887350000000     0.531100000000     0.060165000000    -1.52042    
O5       O      0.804310000000     0.537780000000     0.050290000000    -1.36863    
C1       C      0.892557500000     0.615663333333     0.183090000000     0.787751   
C2       C      0.861390000000     0.588320000000     0.138985000000    -0.131926   
C3       C      0.886055000000     0.575973333333     0.113095000000    -0.355006   
C4       C      0.855327500000     0.546996666667     0.069800000000     1.23609    
H2       H      0.817580000000     0.577390000000     0.128470000000     0.0406641  
H3       H      0.930570000000     0.585956666667     0.124190000000     0.0989647  
H1       H      0.980737500000     0.658140000000     0.315330000000     0.344226   
O1       O      0.954970000000     0.494230000000     0.029925000000    -2.2099     
O2       O      0.938237500000     0.533283333333     0.442045000000    -1.16081    
O3       O      0.865390000000     0.543743333333     0.457810000000    -1.30462    
O4       O      0.887350000000     0.635566666667     0.310165000000    -1.52042    
O5       O      0.804310000000     0.628886666667     0.300290000000    -1.36863    
C1       C      0.892557500000     0.551003333333     0.433090000000     0.787751   
C2       C      0.861390000000     0.578346666667     0.388985000000    -0.131926   
C3       C      0.886055000000     0.590693333333     0.363095000000    -0.355006   
C4       C      0.855327500000     0.619670000000     0.319800000000     1.23609    
H2       H      0.817580000000     0.589276666667     0.378470000000     0.0406641  
H3       H      0.930570000000     0.580710000000     0.374190000000     0.0989647  
H1       H      0.980737500000     0.508526666667     0.065330000000     0.344226   
O1       O      0.795030000000     0.660896666667     0.220075000000    -2.2099     
O2       O      0.811762500000     0.366616666667     0.307955000000    -1.16081    
O3       O      0.884610000000     0.377076666667     0.292190000000    -1.30462    
O4       O      0.862650000000     0.468900000000     0.439835000000    -1.52042    
O5       O      0.945690000000     0.462220000000     0.449710000000    -1.36863    
C1       C      0.857442500000     0.384336666667     0.316910000000     0.787751   
C2       C      0.888610000000     0.411680000000     0.361015000000    -0.131926   
C3       C      0.863945000000     0.424026666667     0.386905000000    -0.355006   
C4       C      0.894672500000     0.453003333333     0.430200000000     1.23609    
H2       H      0.932420000000     0.422610000000     0.371530000000     0.0406641  
H3       H      0.819430000000     0.414043333333     0.375810000000     0.0989647  
H1       H      0.769262500000     0.341860000000     0.184670000000     0.344226   
Al1      Al     0.875000000000     0.500000000000     0.500000000000     5.86518    
Al2      Al     0.750000000000     0.500000000000     0.500000000000     5.22206    
O1       O      0.795030000000     0.505770000000     0.970075000000    -2.2099     
O2       O      0.811762500000     0.466716666667     0.557955000000    -1.16081    
O3       O      0.884610000000     0.456256666667     0.542190000000    -1.30462    
O4       O      0.862650000000     0.364433333333     0.689835000000    -1.52042    
O5       O      0.945690000000     0.371113333333     0.699710000000    -1.36863    
C1       C      0.857442500000     0.448996666667     0.566910000000     0.787751   
C2       C      0.888610000000     0.421653333333     0.611015000000    -0.131926   
C3       C      0.863945000000     0.409306666667     0.636905000000    -0.355006   
C4       C      0.894672500000     0.380330000000     0.680200000000     1.23609    
H2       H      0.932420000000     0.410723333333     0.621530000000     0.0406641  
H3       H      0.819430000000     0.419290000000     0.625810000000     0.0989647  
H1       H      0.769262500000     0.491473333333     0.934670000000     0.344226   
Al1      Al     0.875000000000     0.333333333333     0.750000000000     5.86518    
Al2      Al     0.750000000000     0.333333333333     0.750000000000     5.22206    
O1       O      0.954970000000     0.339103333333     0.779925000000    -2.2099     
O2       O      0.938237500000     0.633383333333     0.692045000000    -1.16081    
O3       O      0.865390000000     0.622923333333     0.707810000000    -1.30462    
O4       O      0.887350000000     0.531100000000     0.560165000000    -1.52042    
O5       O      0.804310000000     0.537780000000     0.550290000000    -1.36863    
C1       C      0.892557500000     0.615663333333     0.683090000000     0.787751   
C2       C      0.861390000000     0.588320000000     0.638985000000    -0.131926   
C3       C      0.886055000000     0.575973333333     0.613095000000    -0.355006   
C4       C      0.855327500000     0.546996666667     0.569800000000     1.23609    
H2       H      0.817580000000     0.577390000000     0.628470000000     0.0406641  
H3       H      0.930570000000     0.585956666667     0.624190000000     0.0989647  
H1       H      0.980737500000     0.658140000000     0.815330000000     0.344226   
O1       O      0.954970000000     0.494230000000     0.529925000000    -2.2099     
O2       O      0.938237500000     0.533283333333     0.942045000000    -1.16081    
O3       O      0.865390000000     0.543743333333     0.957810000000    -1.30462    
O4       O      0.887350000000     0.635566666667     0.810165000000    -1.52042    
O5       O      0.804310000000     0.628886666667     0.800290000000    -1.36863    
C1       C      0.892557500000     0.551003333333     0.933090000000     0.787751   
C2       C      0.861390000000     0.578346666667     0.888985000000    -0.131926   
C3       C      0.886055000000     0.590693333333     0.863095000000    -0.355006   
C4       C      0.855327500000     0.619670000000     0.819800000000     1.23609    
H2       H      0.817580000000     0.589276666667     0.878470000000     0.0406641  
H3       H      0.930570000000     0.580710000000     0.874190000000     0.0989647  
H1       H      0.980737500000     0.508526666667     0.565330000000     0.344226   
O1       O      0.795030000000     0.660896666667     0.720075000000    -2.2099     
O2       O      0.811762500000     0.366616666667     0.807955000000    -1.16081    
O3       O      0.884610000000     0.377076666667     0.792190000000    -1.30462    
O4       O      0.862650000000     0.468900000000     0.939835000000    -1.52042    
O5       O      0.945690000000     0.462220000000     0.949710000000    -1.36863    
C1       C      0.857442500000     0.384336666667     0.816910000000     0.787751   
C2       C      0.888610000000     0.411680000000     0.861015000000    -0.131926   
C3       C      0.863945000000     0.424026666667     0.886905000000    -0.355006   
C4       C      0.894672500000     0.453003333333     0.930200000000     1.23609    
H2       H      0.932420000000     0.422610000000     0.871530000000     0.0406641  
H3       H      0.819430000000     0.414043333333     0.875810000000     0.0989647  
H1       H      0.769262500000     0.341860000000     0.684670000000     0.344226   
Al1      Al     0.875000000000     0.833333333333     0.000000000000     5.86518    
Al2      Al     0.750000000000     0.833333333333     0.000000000000     5.22206    
O1       O      0.795030000000     0.839103333333     0.470075000000    -2.2099     
O2       O      0.811762500000     0.800050000000     0.057955000000    -1.16081    
O3       O      0.884610000000     0.789590000000     0.042190000000    -1.30462    
O4       O      0.862650000000     0.697766666667     0.189835000000    -1.52042    
O5       O      0.945690000000     0.704446666667     0.199710000000    -1.36863    
C1       C      0.857442500000     0.782330000000     0.066910000000     0.787751   
C2       C      0.888610000000     0.754986666667     0.111015000000    -0.131926   
C3       C      0.863945000000     0.742640000000     0.136905000000    -0.355006   
C4       C      0.894672500000     0.713663333333     0.180200000000     1.23609    
H2       H      0.932420000000     0.744056666667     0.121530000000     0.0406641  
H3       H      0.819430000000     0.752623333333     0.125810000000     0.0989647  
H1       H      0.769262500000     0.824806666667     0.434670000000     0.344226   
Al1      Al     0.875000000000     0.666666666667     0.250000000000     5.86518    
Al2      Al     0.750000000000     0.666666666667     0.250000000000     5.22206    
O1       O      0.954970000000     0.672436666667     0.279925000000    -2.2099     
O2       O      0.938237500000     0.966716666667     0.192045000000    -1.16081    
O3       O      0.865390000000     0.956256666667     0.207810000000    -1.30462    
O4       O      0.887350000000     0.864433333333     0.060165000000    -1.52042    
O5       O      0.804310000000     0.871113333333     0.050290000000    -1.36863    
C1       C      0.892557500000     0.948996666667     0.183090000000     0.787751   
C2       C      0.861390000000     0.921653333333     0.138985000000    -0.131926   
C3       C      0.886055000000     0.909306666667     0.113095000000    -0.355006   
C4       C      0.855327500000     0.880330000000     0.069800000000     1.23609    
H2       H      0.817580000000     0.910723333333     0.128470000000     0.0406641  
H3       H      0.930570000000     0.919290000000     0.124190000000     0.0989647  
H1       H      0.980737500000     0.991473333333     0.315330000000     0.344226   
O1       O      0.954970000000     0.827563333333     0.029925000000    -2.2099     
O2       O      0.938237500000     0.866616666667     0.442045000000    -1.16081    
O3       O      0.865390000000     0.877076666667     0.457810000000    -1.30462    
O4       O      0.887350000000     0.968900000000     0.310165000000    -1.52042    
O5       O      0.804310000000     0.962220000000     0.300290000000    -1.36863    
C1       C      0.892557500000     0.884336666667     0.433090000000     0.787751   
C2       C      0.861390000000     0.911680000000     0.388985000000    -0.131926   
C3       C      0.886055000000     0.924026666667     0.363095000000    -0.355006   
C4       C      0.855327500000     0.953003333333     0.319800000000     1.23609    
H2       H      0.817580000000     0.922610000000     0.378470000000     0.0406641  
H3       H      0.930570000000     0.914043333333     0.374190000000     0.0989647  
H1       H      0.980737500000     0.841860000000     0.065330000000     0.344226   
O1       O      0.795030000000     0.994230000000     0.220075000000    -2.2099     
O2       O      0.811762500000     0.699950000000     0.307955000000    -1.16081    
O3       O      0.884610000000     0.710410000000     0.292190000000    -1.30462    
O4       O      0.862650000000     0.802233333333     0.439835000000    -1.52042    
O5       O      0.945690000000     0.795553333333     0.449710000000    -1.36863    
C1       C      0.857442500000     0.717670000000     0.316910000000     0.787751   
C2       C      0.888610000000     0.745013333333     0.361015000000    -0.131926   
C3       C      0.863945000000     0.757360000000     0.386905000000    -0.355006   
C4       C      0.894672500000     0.786336666667     0.430200000000     1.23609    
H2       H      0.932420000000     0.755943333333     0.371530000000     0.0406641  
H3       H      0.819430000000     0.747376666667     0.375810000000     0.0989647  
H1       H      0.769262500000     0.675193333333     0.184670000000     0.344226   
Al1      Al     0.875000000000     0.833333333333     0.500000000000     5.86518    
Al2      Al     0.750000000000     0.833333333333     0.500000000000     5.22206    
O1       O      0.795030000000     0.839103333333     0.970075000000    -2.2099     
O2       O      0.811762500000     0.800050000000     0.557955000000    -1.16081    
O3       O      0.884610000000     0.789590000000     0.542190000000    -1.30462    
O4       O      0.862650000000     0.697766666667     0.689835000000    -1.52042    
O5       O      0.945690000000     0.704446666667     0.699710000000    -1.36863    
C1       C      0.857442500000     0.782330000000     0.566910000000     0.787751   
C2       C      0.888610000000     0.754986666667     0.611015000000    -0.131926   
C3       C      0.863945000000     0.742640000000     0.636905000000    -0.355006   
C4       C      0.894672500000     0.713663333333     0.680200000000     1.23609    
H2       H      0.932420000000     0.744056666667     0.621530000000     0.0406641  
H3       H      0.819430000000     0.752623333333     0.625810000000     0.0989647  
H1       H      0.769262500000     0.824806666667     0.934670000000     0.344226   
Al1      Al     0.875000000000     0.666666666667     0.750000000000     5.86518    
Al2      Al     0.750000000000     0.666666666667     0.750000000000     5.22206    
O1       O      0.954970000000     0.672436666667     0.779925000000    -2.2099     
O2       O      0.938237500000     0.966716666667     0.692045000000    -1.16081    
O3       O      0.865390000000     0.956256666667     0.707810000000    -1.30462    
O4       O      0.887350000000     0.864433333333     0.560165000000    -1.52042    
O5       O      0.804310000000     0.871113333333     0.550290000000    -1.36863    
C1       C      0.892557500000     0.948996666667     0.683090000000     0.787751   
C2       C      0.861390000000     0.921653333333     0.638985000000    -0.131926   
C3       C      0.886055000000     0.909306666667     0.613095000000    -0.355006   
C4       C      0.855327500000     0.880330000000     0.569800000000     1.23609    
H2       H      0.817580000000     0.910723333333     0.628470000000     0.0406641  
H3       H      0.930570000000     0.919290000000     0.624190000000     0.0989647  
H1       H      0.980737500000     0.991473333333     0.815330000000     0.344226   
O1       O      0.954970000000     0.827563333333     0.529925000000    -2.2099     
O2       O      0.938237500000     0.866616666667     0.942045000000    -1.16081    
O3       O      0.865390000000     0.877076666667     0.957810000000    -1.30462    
O4       O      0.887350000000     0.968900000000     0.810165000000    -1.52042    
O5       O      0.804310000000     0.962220000000     0.800290000000    -1.36863    
C1       C      0.892557500000     0.884336666667     0.933090000000     0.787751   
C2       C      0.861390000000     0.911680000000     0.888985000000    -0.131926   
C3       C      0.886055000000     0.924026666667     0.863095000000    -0.355006   
C4       C      0.855327500000     0.953003333333     0.819800000000     1.23609    
H2       H      0.817580000000     0.922610000000     0.878470000000     0.0406641  
H3       H      0.930570000000     0.914043333333     0.874190000000     0.0989647  
H1       H      0.980737500000     0.841860000000     0.565330000000     0.344226   
O1       O      0.795030000000     0.994230000000     0.720075000000    -2.2099     
O2       O      0.811762500000     0.699950000000     0.807955000000    -1.16081    
O3       O      0.884610000000     0.710410000000     0.792190000000    -1.30462    
O4       O      0.862650000000     0.802233333333     0.939835000000    -1.52042    
O5       O      0.945690000000     0.795553333333     0.949710000000    -1.36863    
C1       C      0.857442500000     0.717670000000     0.816910000000     0.787751   
C2       C      0.888610000000     0.745013333333     0.861015000000    -0.131926   
C3       C      0.863945000000     0.757360000000     0.886905000000    -0.355006   
C4       C      0.894672500000     0.786336666667     0.930200000000     1.23609    
H2       H      0.932420000000     0.755943333333     0.871530000000     0.0406641  
H3       H      0.819430000000     0.747376666667     0.875810000000     0.0989647  
H1       H      0.769262500000     0.675193333333     0.684670000000     0.344226   


