data_Al-Fum

_audit_creation_method RASPA-1.0
_audit_creation_date 2025-7-10
_audit_author_name ''

_citation_id                 1
_citation_year               10.1002/anie.201410459

_cell_length_a    27.3676
_cell_length_b    48.3508
_cell_length_c    56.828
_cell_angle_alpha 90
_cell_angle_beta  122.547
_cell_angle_gamma 90
_cell_volume      63387.7

_symmetry_cell_setting          monoclinic
_symmetry_space_group_name_Hall 'P 1'
_symmetry_space_group_name_H-M  'P 1'
_symmetry_Int_Tables_number     1

_symmetry_equiv_pos_as_xyz 'x,y,z'

loop_
_atom_site_label
_atom_site_type_symbol
_atom_site_fract_x
_atom_site_fract_y
_atom_site_fract_z
_atom_site_charge
Al1      Al     0.125000000000     0.125000000000     0.000000000000     5.5836     
Al2      Al     0.000000000000     0.125000000000     0.000000000000     4.8817     
O1       O      0.045030000000     0.129327500000     0.235037500000    -2.20314    
O2       O      0.061762500000     0.100037500000     0.028977500000    -1.11636    
O3       O      0.134610000000     0.092192500000     0.021095000000    -1.26435    
O4       O      0.112650000000     0.023325000000     0.094917500000    -1.47659    
O5       O      0.195690000000     0.028335000000     0.099855000000    -1.33051    
C1       C      0.107442500000     0.086747500000     0.033455000000     0.754437   
C2       C      0.138610000000     0.066240000000     0.055507500000    -0.130423   
C3       C      0.113945000000     0.056980000000     0.068452500000    -0.351208   
C4       C      0.144672500000     0.035247500000     0.090100000000     1.19952    
H2       H      0.182420000000     0.058042500000     0.060765000000     0.0372806  
H3       H      0.069430000000     0.064467500000     0.062905000000     0.0918187  
H1       H      0.019262500000     0.118605000000     0.217335000000     0.337431   
Al1      Al     0.125000000000     0.000000000000     0.125000000000     5.59216    
Al2      Al     0.000000000000     0.000000000000     0.125000000000     4.88696    
O1       O      0.204970000000     0.004327500000     0.139962500000    -2.1642     
O2       O      0.188237500000     0.225037500000     0.096022500000    -1.1721     
O3       O      0.115390000000     0.217192500000     0.103905000000    -1.31167    
O4       O      0.137350000000     0.148325000000     0.030082500000    -1.46647    
O5       O      0.054310000000     0.153335000000     0.025145000000    -1.31816    
C1       C      0.142557500000     0.211747500000     0.091545000000     0.793972   
C2       C      0.111390000000     0.191240000000     0.069492500000    -0.143484   
C3       C      0.136055000000     0.181980000000     0.056547500000    -0.340401   
C4       C      0.105327500000     0.160247500000     0.034900000000     1.18456    
H2       H      0.067580000000     0.183042500000     0.064235000000     0.0385858  
H3       H      0.180570000000     0.189467500000     0.062095000000     0.0934048  
H1       H      0.230737500000     0.243605000000     0.157665000000     0.344985   
O1       O      0.204970000000     0.120672500000     0.014962500000    -2.13758    
O2       O      0.188237500000     0.149962500000     0.221022500000    -1.17       
O3       O      0.115390000000     0.157807500000     0.228905000000    -1.31075    
O4       O      0.137350000000     0.226675000000     0.155082500000    -1.52181    
O5       O      0.054310000000     0.221665000000     0.150145000000    -1.36413    
C1       C      0.142557500000     0.163252500000     0.216545000000     0.791667   
C2       C      0.111390000000     0.183760000000     0.194492500000    -0.134703   
C3       C      0.136055000000     0.193020000000     0.181547500000    -0.354295   
C4       C      0.105327500000     0.214752500000     0.159900000000     1.23268    
H2       H      0.067580000000     0.191957500000     0.189235000000     0.0368396  
H3       H      0.180570000000     0.185532500000     0.187095000000     0.0986512  
H1       H      0.230737500000     0.131395000000     0.032665000000     0.336897   
O1       O      0.045030000000     0.245672500000     0.110037500000    -2.20345    
O2       O      0.061762500000     0.024962500000     0.153977500000    -1.12126    
O3       O      0.134610000000     0.032807500000     0.146095000000    -1.25916    
O4       O      0.112650000000     0.101675000000     0.219917500000    -1.52806    
O5       O      0.195690000000     0.096665000000     0.224855000000    -1.38077    
C1       C      0.107442500000     0.038252500000     0.158455000000     0.753531   
C2       C      0.138610000000     0.058760000000     0.180507500000    -0.12271    
C3       C      0.113945000000     0.068020000000     0.193452500000    -0.364542   
C4       C      0.144672500000     0.089752500000     0.215100000000     1.24314    
H2       H      0.182420000000     0.066957500000     0.185765000000     0.0365767  
H3       H      0.069430000000     0.060532500000     0.187905000000     0.0950493  
H1       H      0.019262500000     0.006395000000     0.092335000000     0.291911   
Al1      Al     0.125000000000     0.125000000000     0.250000000000     5.88035    
Al2      Al     0.000000000000     0.125000000000     0.250000000000     5.1475     
O1       O      0.045030000000     0.129327500000     0.485037500000    -2.20272    
O2       O      0.061762500000     0.100037500000     0.278977500000    -1.15738    
O3       O      0.134610000000     0.092192500000     0.271095000000    -1.30821    
O4       O      0.112650000000     0.023325000000     0.344917500000    -1.47492    
O5       O      0.195690000000     0.028335000000     0.349855000000    -1.32934    
C1       C      0.107442500000     0.086747500000     0.283455000000     0.785662   
C2       C      0.138610000000     0.066240000000     0.305507500000    -0.139291   
C3       C      0.113945000000     0.056980000000     0.318452500000    -0.345199   
C4       C      0.144672500000     0.035247500000     0.340100000000     1.19774    
H2       H      0.182420000000     0.058042500000     0.310765000000     0.0412914  
H3       H      0.069430000000     0.064467500000     0.312905000000     0.0913159  
H1       H      0.019262500000     0.118605000000     0.467335000000     0.337076   
Al1      Al     0.125000000000     0.000000000000     0.375000000000     5.59125    
Al2      Al     0.000000000000     0.000000000000     0.375000000000     4.88276    
O1       O      0.204970000000     0.004327500000     0.389962500000    -2.16404    
O2       O      0.188237500000     0.225037500000     0.346022500000    -1.17026    
O3       O      0.115390000000     0.217192500000     0.353905000000    -1.31079    
O4       O      0.137350000000     0.148325000000     0.280082500000    -1.52167    
O5       O      0.054310000000     0.153335000000     0.275145000000    -1.36386    
C1       C      0.142557500000     0.211747500000     0.341545000000     0.791534   
C2       C      0.111390000000     0.191240000000     0.319492500000    -0.134925   
C3       C      0.136055000000     0.181980000000     0.306547500000    -0.354375   
C4       C      0.105327500000     0.160247500000     0.284900000000     1.23237    
H2       H      0.067580000000     0.183042500000     0.314235000000     0.0367115  
H3       H      0.180570000000     0.189467500000     0.312095000000     0.0984414  
H1       H      0.230737500000     0.243605000000     0.407665000000     0.344823   
O1       O      0.204970000000     0.120672500000     0.264962500000    -2.22293    
O2       O      0.188237500000     0.149962500000     0.471022500000    -1.17006    
O3       O      0.115390000000     0.157807500000     0.478905000000    -1.31079    
O4       O      0.137350000000     0.226675000000     0.405082500000    -1.52178    
O5       O      0.054310000000     0.221665000000     0.400145000000    -1.3638     
C1       C      0.142557500000     0.163252500000     0.466545000000     0.791459   
C2       C      0.111390000000     0.183760000000     0.444492500000    -0.134953   
C3       C      0.136055000000     0.193020000000     0.431547500000    -0.354469   
C4       C      0.105327500000     0.214752500000     0.409900000000     1.23218    
H2       H      0.067580000000     0.191957500000     0.439235000000     0.0365599  
H3       H      0.180570000000     0.185532500000     0.437095000000     0.0984129  
H1       H      0.230737500000     0.131395000000     0.282665000000     0.345172   
O1       O      0.045030000000     0.245672500000     0.360037500000    -2.20279    
O2       O      0.061762500000     0.024962500000     0.403977500000    -1.12095    
O3       O      0.134610000000     0.032807500000     0.396095000000    -1.25927    
O4       O      0.112650000000     0.101675000000     0.469917500000    -1.52812    
O5       O      0.195690000000     0.096665000000     0.474855000000    -1.38078    
C1       C      0.107442500000     0.038252500000     0.408455000000     0.753084   
C2       C      0.138610000000     0.058760000000     0.430507500000    -0.122892   
C3       C      0.113945000000     0.068020000000     0.443452500000    -0.364782   
C4       C      0.144672500000     0.089752500000     0.465100000000     1.2429     
H2       H      0.182420000000     0.066957500000     0.435765000000     0.03634    
H3       H      0.069430000000     0.060532500000     0.437905000000     0.0947559  
H1       H      0.019262500000     0.006395000000     0.342335000000     0.292973   
Al1      Al     0.125000000000     0.125000000000     0.500000000000     5.8794     
Al2      Al     0.000000000000     0.125000000000     0.500000000000     5.14528    
O1       O      0.045030000000     0.129327500000     0.735037500000    -2.20284    
O2       O      0.061762500000     0.100037500000     0.528977500000    -1.15719    
O3       O      0.134610000000     0.092192500000     0.521095000000    -1.30814    
O4       O      0.112650000000     0.023325000000     0.594917500000    -1.47491    
O5       O      0.195690000000     0.028335000000     0.599855000000    -1.32932    
C1       C      0.107442500000     0.086747500000     0.533455000000     0.785399   
C2       C      0.138610000000     0.066240000000     0.555507500000    -0.139368   
C3       C      0.113945000000     0.056980000000     0.568452500000    -0.345325   
C4       C      0.144672500000     0.035247500000     0.590100000000     1.19758    
H2       H      0.182420000000     0.058042500000     0.560765000000     0.0411743  
H3       H      0.069430000000     0.064467500000     0.562905000000     0.0911746  
H1       H      0.019262500000     0.118605000000     0.717335000000     0.337018   
Al1      Al     0.125000000000     0.000000000000     0.625000000000     5.59059    
Al2      Al     0.000000000000     0.000000000000     0.625000000000     4.88217    
O1       O      0.204970000000     0.004327500000     0.639962500000    -2.16389    
O2       O      0.188237500000     0.225037500000     0.596022500000    -1.17027    
O3       O      0.115390000000     0.217192500000     0.603905000000    -1.3108     
O4       O      0.137350000000     0.148325000000     0.530082500000    -1.52154    
O5       O      0.054310000000     0.153335000000     0.525145000000    -1.36364    
C1       C      0.142557500000     0.211747500000     0.591545000000     0.791394   
C2       C      0.111390000000     0.191240000000     0.569492500000    -0.135064   
C3       C      0.136055000000     0.181980000000     0.556547500000    -0.354433   
C4       C      0.105327500000     0.160247500000     0.534900000000     1.23205    
H2       H      0.067580000000     0.183042500000     0.564235000000     0.0365783  
H3       H      0.180570000000     0.189467500000     0.562095000000     0.0983196  
H1       H      0.230737500000     0.243605000000     0.657665000000     0.344709   
O1       O      0.204970000000     0.120672500000     0.514962500000    -2.2227     
O2       O      0.188237500000     0.149962500000     0.721022500000    -1.17007    
O3       O      0.115390000000     0.157807500000     0.728905000000    -1.31081    
O4       O      0.137350000000     0.226675000000     0.655082500000    -1.52176    
O5       O      0.054310000000     0.221665000000     0.650145000000    -1.36378    
C1       C      0.142557500000     0.163252500000     0.716545000000     0.791312   
C2       C      0.111390000000     0.183760000000     0.694492500000    -0.135064   
C3       C      0.136055000000     0.193020000000     0.681547500000    -0.354565   
C4       C      0.105327500000     0.214752500000     0.659900000000     1.23201    
H2       H      0.067580000000     0.191957500000     0.689235000000     0.0364645  
H3       H      0.180570000000     0.185532500000     0.687095000000     0.0982977  
H1       H      0.230737500000     0.131395000000     0.532665000000     0.345054   
O1       O      0.045030000000     0.245672500000     0.610037500000    -2.20265    
O2       O      0.061762500000     0.024962500000     0.653977500000    -1.12095    
O3       O      0.134610000000     0.032807500000     0.646095000000    -1.25927    
O4       O      0.112650000000     0.101675000000     0.719917500000    -1.52811    
O5       O      0.195690000000     0.096665000000     0.724855000000    -1.38077    
C1       C      0.107442500000     0.038252500000     0.658455000000     0.752933   
C2       C      0.138610000000     0.058760000000     0.680507500000    -0.122994   
C3       C      0.113945000000     0.068020000000     0.693452500000    -0.364887   
C4       C      0.144672500000     0.089752500000     0.715100000000     1.24274    
H2       H      0.182420000000     0.066957500000     0.685765000000     0.0362286  
H3       H      0.069430000000     0.060532500000     0.687905000000     0.0946548  
H1       H      0.019262500000     0.006395000000     0.592335000000     0.292823   
Al1      Al     0.125000000000     0.125000000000     0.750000000000     5.87887    
Al2      Al     0.000000000000     0.125000000000     0.750000000000     5.14616    
O1       O      0.045030000000     0.129327500000     0.985037500000    -2.07555    
O2       O      0.061762500000     0.100037500000     0.778977500000    -1.1573     
O3       O      0.134610000000     0.092192500000     0.771095000000    -1.30818    
O4       O      0.112650000000     0.023325000000     0.844917500000    -1.47559    
O5       O      0.195690000000     0.028335000000     0.849855000000    -1.32989    
C1       C      0.107442500000     0.086747500000     0.783455000000     0.785314   
C2       C      0.138610000000     0.066240000000     0.805507500000    -0.13934    
C3       C      0.113945000000     0.056980000000     0.818452500000    -0.34555    
C4       C      0.144672500000     0.035247500000     0.840100000000     1.19812    
H2       H      0.182420000000     0.058042500000     0.810765000000     0.0410509  
H3       H      0.069430000000     0.064467500000     0.812905000000     0.091215   
H1       H      0.019262500000     0.118605000000     0.967335000000     0.326283   
Al1      Al     0.125000000000     0.000000000000     0.875000000000     5.59343    
Al2      Al     0.000000000000     0.000000000000     0.875000000000     4.8879     
O1       O      0.204970000000     0.004327500000     0.889962500000    -2.16446    
O2       O      0.188237500000     0.225037500000     0.846022500000    -1.17082    
O3       O      0.115390000000     0.217192500000     0.853905000000    -1.31129    
O4       O      0.137350000000     0.148325000000     0.780082500000    -1.52153    
O5       O      0.054310000000     0.153335000000     0.775145000000    -1.36377    
C1       C      0.142557500000     0.211747500000     0.841545000000     0.791711   
C2       C      0.111390000000     0.191240000000     0.819492500000    -0.135229   
C3       C      0.136055000000     0.181980000000     0.806547500000    -0.354442   
C4       C      0.105327500000     0.160247500000     0.784900000000     1.23198    
H2       H      0.067580000000     0.183042500000     0.814235000000     0.0366126  
H3       H      0.180570000000     0.189467500000     0.812095000000     0.0982174  
H1       H      0.230737500000     0.243605000000     0.907665000000     0.347318   
O1       O      0.204970000000     0.120672500000     0.764962500000    -2.22258    
O2       O      0.188237500000     0.149962500000     0.971022500000    -1.10642    
O3       O      0.115390000000     0.157807500000     0.978905000000    -1.23716    
O4       O      0.137350000000     0.226675000000     0.905082500000    -1.52098    
O5       O      0.054310000000     0.221665000000     0.900145000000    -1.36428    
C1       C      0.142557500000     0.163252500000     0.966545000000     0.76159    
C2       C      0.111390000000     0.183760000000     0.944492500000    -0.119698   
C3       C      0.136055000000     0.193020000000     0.931547500000    -0.35837    
C4       C      0.105327500000     0.214752500000     0.909900000000     1.23563    
H2       H      0.067580000000     0.191957500000     0.939235000000     0.0363105  
H3       H      0.180570000000     0.185532500000     0.937095000000     0.103161   
H1       H      0.230737500000     0.131395000000     0.782665000000     0.344997   
O1       O      0.045030000000     0.245672500000     0.860037500000    -2.20424    
O2       O      0.061762500000     0.024962500000     0.903977500000    -1.12088    
O3       O      0.134610000000     0.032807500000     0.896095000000    -1.25937    
O4       O      0.112650000000     0.101675000000     0.969917500000    -1.4485     
O5       O      0.195690000000     0.096665000000     0.974855000000    -1.30419    
C1       C      0.107442500000     0.038252500000     0.908455000000     0.757727   
C2       C      0.138610000000     0.058760000000     0.930507500000    -0.130533   
C3       C      0.113945000000     0.068020000000     0.943452500000    -0.34157    
C4       C      0.144672500000     0.089752500000     0.965100000000     1.19334    
H2       H      0.182420000000     0.066957500000     0.935765000000     0.0428128  
H3       H      0.069430000000     0.060532500000     0.937905000000     0.0936905  
H1       H      0.019262500000     0.006395000000     0.842335000000     0.292953   
Al1      Al     0.125000000000     0.375000000000     0.000000000000     5.58284    
Al2      Al     0.000000000000     0.375000000000     0.000000000000     4.88121    
O1       O      0.045030000000     0.379327500000     0.235037500000    -2.20301    
O2       O      0.061762500000     0.350037500000     0.028977500000    -1.11526    
O3       O      0.134610000000     0.342192500000     0.021095000000    -1.26262    
O4       O      0.112650000000     0.273325000000     0.094917500000    -1.52904    
O5       O      0.195690000000     0.278335000000     0.099855000000    -1.38056    
C1       C      0.107442500000     0.336747500000     0.033455000000     0.752555   
C2       C      0.138610000000     0.316240000000     0.055507500000    -0.122064   
C3       C      0.113945000000     0.306980000000     0.068452500000    -0.364893   
C4       C      0.144672500000     0.285247500000     0.090100000000     1.24368    
H2       H      0.182420000000     0.308042500000     0.060765000000     0.0358119  
H3       H      0.069430000000     0.314467500000     0.062905000000     0.095609   
H1       H      0.019262500000     0.368605000000     0.217335000000     0.3374     
Al1      Al     0.125000000000     0.250000000000     0.125000000000     5.88036    
Al2      Al     0.000000000000     0.250000000000     0.125000000000     5.15016    
O1       O      0.204970000000     0.254327500000     0.139962500000    -2.22268    
O2       O      0.188237500000     0.475037500000     0.096022500000    -1.17213    
O3       O      0.115390000000     0.467192500000     0.103905000000    -1.31176    
O4       O      0.137350000000     0.398325000000     0.030082500000    -1.46668    
O5       O      0.054310000000     0.403335000000     0.025145000000    -1.31832    
C1       C      0.142557500000     0.461747500000     0.091545000000     0.793726   
C2       C      0.111390000000     0.441240000000     0.069492500000    -0.143678   
C3       C      0.136055000000     0.431980000000     0.056547500000    -0.340668   
C4       C      0.105327500000     0.410247500000     0.034900000000     1.18434    
H2       H      0.067580000000     0.433042500000     0.064235000000     0.0383295  
H3       H      0.180570000000     0.439467500000     0.062095000000     0.0932029  
H1       H      0.230737500000     0.493605000000     0.157665000000     0.344841   
O1       O      0.204970000000     0.370672500000     0.014962500000    -2.13718    
O2       O      0.188237500000     0.399962500000     0.221022500000    -1.17026    
O3       O      0.115390000000     0.407807500000     0.228905000000    -1.31089    
O4       O      0.137350000000     0.476675000000     0.155082500000    -1.5218     
O5       O      0.054310000000     0.471665000000     0.150145000000    -1.36416    
C1       C      0.142557500000     0.413252500000     0.216545000000     0.791462   
C2       C      0.111390000000     0.433760000000     0.194492500000    -0.134958   
C3       C      0.136055000000     0.443020000000     0.181547500000    -0.354484   
C4       C      0.105327500000     0.464752500000     0.159900000000     1.23242    
H2       H      0.067580000000     0.441957500000     0.189235000000     0.0366514  
H3       H      0.180570000000     0.435532500000     0.187095000000     0.0984147  
H1       H      0.230737500000     0.381395000000     0.032665000000     0.336503   
O1       O      0.045030000000     0.495672500000     0.110037500000    -2.20328    
O2       O      0.061762500000     0.274962500000     0.153977500000    -1.15651    
O3       O      0.134610000000     0.282807500000     0.146095000000    -1.30639    
O4       O      0.112650000000     0.351675000000     0.219917500000    -1.52728    
O5       O      0.195690000000     0.346665000000     0.224855000000    -1.37932    
C1       C      0.107442500000     0.288252500000     0.158455000000     0.784117   
C2       C      0.138610000000     0.308760000000     0.180507500000    -0.1308     
C3       C      0.113945000000     0.318020000000     0.193452500000    -0.358699   
C4       C      0.144672500000     0.339752500000     0.215100000000     1.24199    
H2       H      0.182420000000     0.316957500000     0.185765000000     0.0399955  
H3       H      0.069430000000     0.310532500000     0.187905000000     0.0953184  
H1       H      0.019262500000     0.256395000000     0.092335000000     0.336101   
Al1      Al     0.125000000000     0.375000000000     0.250000000000     5.87978    
Al2      Al     0.000000000000     0.375000000000     0.250000000000     5.14718    
O1       O      0.045030000000     0.379327500000     0.485037500000    -2.20258    
O2       O      0.061762500000     0.350037500000     0.278977500000    -1.15631    
O3       O      0.134610000000     0.342192500000     0.271095000000    -1.30651    
O4       O      0.112650000000     0.273325000000     0.344917500000    -1.5274     
O5       O      0.195690000000     0.278335000000     0.349855000000    -1.37942    
C1       C      0.107442500000     0.336747500000     0.283455000000     0.783799   
C2       C      0.138610000000     0.316240000000     0.305507500000    -0.130932   
C3       C      0.113945000000     0.306980000000     0.318452500000    -0.358888   
C4       C      0.144672500000     0.285247500000     0.340100000000     1.24192    
H2       H      0.182420000000     0.308042500000     0.310765000000     0.0398256  
H3       H      0.069430000000     0.314467500000     0.312905000000     0.0951091  
H1       H      0.019262500000     0.368605000000     0.467335000000     0.337044   
Al1      Al     0.125000000000     0.250000000000     0.375000000000     5.87964    
Al2      Al     0.000000000000     0.250000000000     0.375000000000     5.14612    
O1       O      0.204970000000     0.254327500000     0.389962500000    -2.22257    
O2       O      0.188237500000     0.475037500000     0.346022500000    -1.17029    
O3       O      0.115390000000     0.467192500000     0.353905000000    -1.31087    
O4       O      0.137350000000     0.398325000000     0.280082500000    -1.52191    
O5       O      0.054310000000     0.403335000000     0.275145000000    -1.36405    
C1       C      0.142557500000     0.461747500000     0.341545000000     0.791286   
C2       C      0.111390000000     0.441240000000     0.319492500000    -0.135114   
C3       C      0.136055000000     0.431980000000     0.306547500000    -0.354651   
C4       C      0.105327500000     0.410247500000     0.284900000000     1.23218    
H2       H      0.067580000000     0.433042500000     0.314235000000     0.0364533  
H3       H      0.180570000000     0.439467500000     0.312095000000     0.098242   
H1       H      0.230737500000     0.493605000000     0.407665000000     0.34468    
O1       O      0.204970000000     0.370672500000     0.264962500000    -2.22258    
O2       O      0.188237500000     0.399962500000     0.471022500000    -1.17033    
O3       O      0.115390000000     0.407807500000     0.478905000000    -1.31094    
O4       O      0.137350000000     0.476675000000     0.405082500000    -1.52177    
O5       O      0.054310000000     0.471665000000     0.400145000000    -1.36384    
C1       C      0.142557500000     0.413252500000     0.466545000000     0.791254   
C2       C      0.111390000000     0.433760000000     0.444492500000    -0.135208   
C3       C      0.136055000000     0.443020000000     0.431547500000    -0.354658   
C4       C      0.105327500000     0.464752500000     0.409900000000     1.23192    
H2       H      0.067580000000     0.441957500000     0.439235000000     0.0363712  
H3       H      0.180570000000     0.435532500000     0.437095000000     0.098176   
H1       H      0.230737500000     0.381395000000     0.282665000000     0.344782   
O1       O      0.045030000000     0.495672500000     0.360037500000    -2.20262    
O2       O      0.061762500000     0.274962500000     0.403977500000    -1.15622    
O3       O      0.134610000000     0.282807500000     0.396095000000    -1.30653    
O4       O      0.112650000000     0.351675000000     0.469917500000    -1.52733    
O5       O      0.195690000000     0.346665000000     0.474855000000    -1.37933    
C1       C      0.107442500000     0.288252500000     0.408455000000     0.783689   
C2       C      0.138610000000     0.308760000000     0.430507500000    -0.130988   
C3       C      0.113945000000     0.318020000000     0.443452500000    -0.358936   
C4       C      0.144672500000     0.339752500000     0.465100000000     1.24176    
H2       H      0.182420000000     0.316957500000     0.435765000000     0.0397605  
H3       H      0.069430000000     0.310532500000     0.437905000000     0.0950241  
H1       H      0.019262500000     0.256395000000     0.342335000000     0.337194   
Al1      Al     0.125000000000     0.375000000000     0.500000000000     5.87882    
Al2      Al     0.000000000000     0.375000000000     0.500000000000     5.14496    
O1       O      0.045030000000     0.379327500000     0.735037500000    -2.2027     
O2       O      0.061762500000     0.350037500000     0.528977500000    -1.15611    
O3       O      0.134610000000     0.342192500000     0.521095000000    -1.30644    
O4       O      0.112650000000     0.273325000000     0.594917500000    -1.5274     
O5       O      0.195690000000     0.278335000000     0.599855000000    -1.3794     
C1       C      0.107442500000     0.336747500000     0.533455000000     0.783535   
C2       C      0.138610000000     0.316240000000     0.555507500000    -0.131008   
C3       C      0.113945000000     0.306980000000     0.568452500000    -0.359015   
C4       C      0.144672500000     0.285247500000     0.590100000000     1.24176    
H2       H      0.182420000000     0.308042500000     0.560765000000     0.0397088  
H3       H      0.069430000000     0.314467500000     0.562905000000     0.0949681  
H1       H      0.019262500000     0.368605000000     0.717335000000     0.336986   
Al1      Al     0.125000000000     0.250000000000     0.625000000000     5.87899    
Al2      Al     0.000000000000     0.250000000000     0.625000000000     5.14554    
O1       O      0.204970000000     0.254327500000     0.639962500000    -2.22242    
O2       O      0.188237500000     0.475037500000     0.596022500000    -1.1703     
O3       O      0.115390000000     0.467192500000     0.603905000000    -1.31089    
O4       O      0.137350000000     0.398325000000     0.530082500000    -1.52178    
O5       O      0.054310000000     0.403335000000     0.525145000000    -1.36383    
C1       C      0.142557500000     0.461747500000     0.591545000000     0.791147   
C2       C      0.111390000000     0.441240000000     0.569492500000    -0.135253   
C3       C      0.136055000000     0.431980000000     0.556547500000    -0.35471    
C4       C      0.105327500000     0.410247500000     0.534900000000     1.23186    
H2       H      0.067580000000     0.433042500000     0.564235000000     0.03632    
H3       H      0.180570000000     0.439467500000     0.562095000000     0.0981201  
H1       H      0.230737500000     0.493605000000     0.657665000000     0.344565   
O1       O      0.204970000000     0.370672500000     0.514962500000    -2.22235    
O2       O      0.188237500000     0.399962500000     0.721022500000    -1.17033    
O3       O      0.115390000000     0.407807500000     0.728905000000    -1.31095    
O4       O      0.137350000000     0.476675000000     0.655082500000    -1.52175    
O5       O      0.054310000000     0.471665000000     0.650145000000    -1.36382    
C1       C      0.142557500000     0.413252500000     0.716545000000     0.791107   
C2       C      0.111390000000     0.433760000000     0.694492500000    -0.135319   
C3       C      0.136055000000     0.443020000000     0.681547500000    -0.354755   
C4       C      0.105327500000     0.464752500000     0.659900000000     1.23175    
H2       H      0.067580000000     0.441957500000     0.689235000000     0.0362758  
H3       H      0.180570000000     0.435532500000     0.687095000000     0.0980607  
H1       H      0.230737500000     0.381395000000     0.532665000000     0.344665   
O1       O      0.045030000000     0.495672500000     0.610037500000    -2.20249    
O2       O      0.061762500000     0.274962500000     0.653977500000    -1.15622    
O3       O      0.134610000000     0.282807500000     0.646095000000    -1.30654    
O4       O      0.112650000000     0.351675000000     0.719917500000    -1.52733    
O5       O      0.195690000000     0.346665000000     0.724855000000    -1.37932    
C1       C      0.107442500000     0.288252500000     0.658455000000     0.783539   
C2       C      0.138610000000     0.308760000000     0.680507500000    -0.131091   
C3       C      0.113945000000     0.318020000000     0.693452500000    -0.359041   
C4       C      0.144672500000     0.339752500000     0.715100000000     1.24159    
H2       H      0.182420000000     0.316957500000     0.685765000000     0.0396488  
H3       H      0.069430000000     0.310532500000     0.687905000000     0.0949226  
H1       H      0.019262500000     0.256395000000     0.592335000000     0.337046   
Al1      Al     0.125000000000     0.375000000000     0.750000000000     5.87829    
Al2      Al     0.000000000000     0.375000000000     0.750000000000     5.14583    
O1       O      0.045030000000     0.379327500000     0.985037500000    -2.07534    
O2       O      0.061762500000     0.350037500000     0.778977500000    -1.15622    
O3       O      0.134610000000     0.342192500000     0.771095000000    -1.30647    
O4       O      0.112650000000     0.273325000000     0.844917500000    -1.52804    
O5       O      0.195690000000     0.278335000000     0.849855000000    -1.37994    
C1       C      0.107442500000     0.336747500000     0.783455000000     0.783452   
C2       C      0.138610000000     0.316240000000     0.805507500000    -0.130984   
C3       C      0.113945000000     0.306980000000     0.818452500000    -0.359232   
C4       C      0.144672500000     0.285247500000     0.840100000000     1.24228    
H2       H      0.182420000000     0.308042500000     0.810765000000     0.0395868  
H3       H      0.069430000000     0.314467500000     0.812905000000     0.0950067  
H1       H      0.019262500000     0.368605000000     0.967335000000     0.326245   
Al1      Al     0.125000000000     0.250000000000     0.875000000000     5.88168    
Al2      Al     0.000000000000     0.250000000000     0.875000000000     5.15113    
O1       O      0.204970000000     0.254327500000     0.889962500000    -2.22297    
O2       O      0.188237500000     0.475037500000     0.846022500000    -1.17085    
O3       O      0.115390000000     0.467192500000     0.853905000000    -1.31138    
O4       O      0.137350000000     0.398325000000     0.780082500000    -1.52177    
O5       O      0.054310000000     0.403335000000     0.775145000000    -1.36396    
C1       C      0.142557500000     0.461747500000     0.841545000000     0.791464   
C2       C      0.111390000000     0.441240000000     0.819492500000    -0.135418   
C3       C      0.136055000000     0.431980000000     0.806547500000    -0.354718   
C4       C      0.105327500000     0.410247500000     0.784900000000     1.23179    
H2       H      0.067580000000     0.433042500000     0.814235000000     0.0363544  
H3       H      0.180570000000     0.439467500000     0.812095000000     0.098018   
H1       H      0.230737500000     0.493605000000     0.907665000000     0.347175   
O1       O      0.204970000000     0.370672500000     0.764962500000    -2.22222    
O2       O      0.188237500000     0.399962500000     0.971022500000    -1.10665    
O3       O      0.115390000000     0.407807500000     0.978905000000    -1.23726    
O4       O      0.137350000000     0.476675000000     0.905082500000    -1.52097    
O5       O      0.054310000000     0.471665000000     0.900145000000    -1.36431    
C1       C      0.142557500000     0.413252500000     0.966545000000     0.761366   
C2       C      0.111390000000     0.433760000000     0.944492500000    -0.119945   
C3       C      0.136055000000     0.443020000000     0.931547500000    -0.358563   
C4       C      0.105327500000     0.464752500000     0.909900000000     1.23537    
H2       H      0.067580000000     0.441957500000     0.939235000000     0.0361207  
H3       H      0.180570000000     0.435532500000     0.937095000000     0.102926   
H1       H      0.230737500000     0.381395000000     0.782665000000     0.344608   
O1       O      0.045030000000     0.495672500000     0.860037500000    -2.20407    
O2       O      0.061762500000     0.274962500000     0.903977500000    -1.15613    
O3       O      0.134610000000     0.282807500000     0.896095000000    -1.30661    
O4       O      0.112650000000     0.351675000000     0.969917500000    -1.44767    
O5       O      0.195690000000     0.346665000000     0.974855000000    -1.30269    
C1       C      0.107442500000     0.288252500000     0.908455000000     0.788318   
C2       C      0.138610000000     0.308760000000     0.930507500000    -0.138631   
C3       C      0.113945000000     0.318020000000     0.943452500000    -0.335713   
C4       C      0.144672500000     0.339752500000     0.965100000000     1.19217    
H2       H      0.182420000000     0.316957500000     0.935765000000     0.046235   
H3       H      0.069430000000     0.310532500000     0.937905000000     0.093957   
H1       H      0.019262500000     0.256395000000     0.842335000000     0.337153   
Al1      Al     0.125000000000     0.625000000000     0.000000000000     5.5822     
Al2      Al     0.000000000000     0.625000000000     0.000000000000     4.88058    
O1       O      0.045030000000     0.629327500000     0.235037500000    -2.20286    
O2       O      0.061762500000     0.600037500000     0.028977500000    -1.11526    
O3       O      0.134610000000     0.592192500000     0.021095000000    -1.26262    
O4       O      0.112650000000     0.523325000000     0.094917500000    -1.52899    
O5       O      0.195690000000     0.528335000000     0.099855000000    -1.38051    
C1       C      0.107442500000     0.586747500000     0.033455000000     0.752414   
C2       C      0.138610000000     0.566240000000     0.055507500000    -0.122171   
C3       C      0.113945000000     0.556980000000     0.068452500000    -0.364979   
C4       C      0.144672500000     0.535247500000     0.090100000000     1.24349    
H2       H      0.182420000000     0.558042500000     0.060765000000     0.0357073  
H3       H      0.069430000000     0.564467500000     0.062905000000     0.0954987  
H1       H      0.019262500000     0.618605000000     0.217335000000     0.337293   
Al1      Al     0.125000000000     0.500000000000     0.125000000000     5.87959    
Al2      Al     0.000000000000     0.500000000000     0.125000000000     5.14935    
O1       O      0.204970000000     0.504327500000     0.139962500000    -2.22249    
O2       O      0.188237500000     0.725037500000     0.096022500000    -1.17214    
O3       O      0.115390000000     0.717192500000     0.103905000000    -1.31176    
O4       O      0.137350000000     0.648325000000     0.030082500000    -1.46665    
O5       O      0.054310000000     0.653335000000     0.025145000000    -1.31831    
C1       C      0.142557500000     0.711747500000     0.091545000000     0.793578   
C2       C      0.111390000000     0.691240000000     0.069492500000    -0.143785   
C3       C      0.136055000000     0.681980000000     0.056547500000    -0.340765   
C4       C      0.105327500000     0.660247500000     0.034900000000     1.18417    
H2       H      0.067580000000     0.683042500000     0.064235000000     0.0382229  
H3       H      0.180570000000     0.689467500000     0.062095000000     0.0930896  
H1       H      0.230737500000     0.743605000000     0.157665000000     0.34472    
O1       O      0.204970000000     0.620672500000     0.014962500000    -2.13703    
O2       O      0.188237500000     0.649962500000     0.221022500000    -1.17026    
O3       O      0.115390000000     0.657807500000     0.228905000000    -1.3109     
O4       O      0.137350000000     0.726675000000     0.155082500000    -1.52178    
O5       O      0.054310000000     0.721665000000     0.150145000000    -1.36416    
C1       C      0.142557500000     0.663252500000     0.216545000000     0.791317   
C2       C      0.111390000000     0.683760000000     0.194492500000    -0.135062   
C3       C      0.136055000000     0.693020000000     0.181547500000    -0.354585   
C4       C      0.105327500000     0.714752500000     0.159900000000     1.23225    
H2       H      0.067580000000     0.691957500000     0.189235000000     0.0365416  
H3       H      0.180570000000     0.685532500000     0.187095000000     0.0983036  
H1       H      0.230737500000     0.631395000000     0.032665000000     0.336396   
O1       O      0.045030000000     0.745672500000     0.110037500000    -2.20314    
O2       O      0.061762500000     0.524962500000     0.153977500000    -1.15648    
O3       O      0.134610000000     0.532807500000     0.146095000000    -1.30637    
O4       O      0.112650000000     0.601675000000     0.219917500000    -1.52725    
O5       O      0.195690000000     0.596665000000     0.224855000000    -1.3793     
C1       C      0.107442500000     0.538252500000     0.158455000000     0.783958   
C2       C      0.138610000000     0.558760000000     0.180507500000    -0.130897   
C3       C      0.113945000000     0.568020000000     0.193452500000    -0.358795   
C4       C      0.144672500000     0.589752500000     0.215100000000     1.24183    
H2       H      0.182420000000     0.566957500000     0.185765000000     0.03989    
H3       H      0.069430000000     0.560532500000     0.187905000000     0.0952102  
H1       H      0.019262500000     0.506395000000     0.092335000000     0.335983   
Al1      Al     0.125000000000     0.625000000000     0.250000000000     5.87914    
Al2      Al     0.000000000000     0.625000000000     0.250000000000     5.14657    
O1       O      0.045030000000     0.629327500000     0.485037500000    -2.20244    
O2       O      0.061762500000     0.600037500000     0.278977500000    -1.15631    
O3       O      0.134610000000     0.592192500000     0.271095000000    -1.30651    
O4       O      0.112650000000     0.523325000000     0.344917500000    -1.52735    
O5       O      0.195690000000     0.528335000000     0.349855000000    -1.37937    
C1       C      0.107442500000     0.586747500000     0.283455000000     0.78366    
C2       C      0.138610000000     0.566240000000     0.305507500000    -0.131038   
C3       C      0.113945000000     0.556980000000     0.318452500000    -0.358974   
C4       C      0.144672500000     0.535247500000     0.340100000000     1.24173    
H2       H      0.182420000000     0.558042500000     0.310765000000     0.0397214  
H3       H      0.069430000000     0.564467500000     0.312905000000     0.0949991  
H1       H      0.019262500000     0.618605000000     0.467335000000     0.336937   
Al1      Al     0.125000000000     0.500000000000     0.375000000000     5.87887    
Al2      Al     0.000000000000     0.500000000000     0.375000000000     5.14531    
O1       O      0.204970000000     0.504327500000     0.389962500000    -2.22238    
O2       O      0.188237500000     0.725037500000     0.346022500000    -1.1703     
O3       O      0.115390000000     0.717192500000     0.353905000000    -1.31088    
O4       O      0.137350000000     0.648325000000     0.280082500000    -1.52188    
O5       O      0.054310000000     0.653335000000     0.275145000000    -1.36404    
C1       C      0.142557500000     0.711747500000     0.341545000000     0.791138   
C2       C      0.111390000000     0.691240000000     0.319492500000    -0.135221   
C3       C      0.136055000000     0.681980000000     0.306547500000    -0.354749   
C4       C      0.105327500000     0.660247500000     0.284900000000     1.23202    
H2       H      0.067580000000     0.683042500000     0.314235000000     0.0363463  
H3       H      0.180570000000     0.689467500000     0.312095000000     0.0981285  
H1       H      0.230737500000     0.743605000000     0.407665000000     0.344558   
O1       O      0.204970000000     0.620672500000     0.264962500000    -2.22243    
O2       O      0.188237500000     0.649962500000     0.471022500000    -1.17033    
O3       O      0.115390000000     0.657807500000     0.478905000000    -1.31094    
O4       O      0.137350000000     0.726675000000     0.405082500000    -1.52176    
O5       O      0.054310000000     0.721665000000     0.400145000000    -1.36383    
C1       C      0.142557500000     0.663252500000     0.466545000000     0.791109   
C2       C      0.111390000000     0.683760000000     0.444492500000    -0.135313   
C3       C      0.136055000000     0.693020000000     0.431547500000    -0.354759   
C4       C      0.105327500000     0.714752500000     0.409900000000     1.23175    
H2       H      0.067580000000     0.691957500000     0.439235000000     0.0362614  
H3       H      0.180570000000     0.685532500000     0.437095000000     0.0980649  
H1       H      0.230737500000     0.631395000000     0.282665000000     0.344674   
O1       O      0.045030000000     0.745672500000     0.360037500000    -2.20248    
O2       O      0.061762500000     0.524962500000     0.403977500000    -1.15619    
O3       O      0.134610000000     0.532807500000     0.396095000000    -1.30651    
O4       O      0.112650000000     0.601675000000     0.469917500000    -1.52731    
O5       O      0.195690000000     0.596665000000     0.474855000000    -1.37931    
C1       C      0.107442500000     0.538252500000     0.408455000000     0.78353    
C2       C      0.138610000000     0.558760000000     0.430507500000    -0.131084   
C3       C      0.113945000000     0.568020000000     0.443452500000    -0.359032   
C4       C      0.144672500000     0.589752500000     0.465100000000     1.24159    
H2       H      0.182420000000     0.566957500000     0.435765000000     0.0396549  
H3       H      0.069430000000     0.560532500000     0.437905000000     0.0949158  
H1       H      0.019262500000     0.506395000000     0.342335000000     0.337077   
Al1      Al     0.125000000000     0.625000000000     0.500000000000     5.87818    
Al2      Al     0.000000000000     0.625000000000     0.500000000000     5.14434    
O1       O      0.045030000000     0.629327500000     0.735037500000    -2.20256    
O2       O      0.061762500000     0.600037500000     0.528977500000    -1.15612    
O3       O      0.134610000000     0.592192500000     0.521095000000    -1.30644    
O4       O      0.112650000000     0.523325000000     0.594917500000    -1.52734    
O5       O      0.195690000000     0.528335000000     0.599855000000    -1.37935    
C1       C      0.107442500000     0.586747500000     0.533455000000     0.783395   
C2       C      0.138610000000     0.566240000000     0.555507500000    -0.131114   
C3       C      0.113945000000     0.556980000000     0.568452500000    -0.3591     
C4       C      0.144672500000     0.535247500000     0.590100000000     1.24157    
H2       H      0.182420000000     0.558042500000     0.560765000000     0.0396046  
H3       H      0.069430000000     0.564467500000     0.562905000000     0.094858   
H1       H      0.019262500000     0.618605000000     0.717335000000     0.336879   
Al1      Al     0.125000000000     0.500000000000     0.625000000000     5.87821    
Al2      Al     0.000000000000     0.500000000000     0.625000000000     5.14472    
O1       O      0.204970000000     0.504327500000     0.639962500000    -2.22222    
O2       O      0.188237500000     0.725037500000     0.596022500000    -1.17031    
O3       O      0.115390000000     0.717192500000     0.603905000000    -1.31089    
O4       O      0.137350000000     0.648325000000     0.530082500000    -1.52176    
O5       O      0.054310000000     0.653335000000     0.525145000000    -1.36381    
C1       C      0.142557500000     0.711747500000     0.591545000000     0.790998   
C2       C      0.111390000000     0.691240000000     0.569492500000    -0.13536    
C3       C      0.136055000000     0.681980000000     0.556547500000    -0.354807   
C4       C      0.105327500000     0.660247500000     0.534900000000     1.23169    
H2       H      0.067580000000     0.683042500000     0.564235000000     0.0362129  
H3       H      0.180570000000     0.689467500000     0.562095000000     0.0980066  
H1       H      0.230737500000     0.743605000000     0.657665000000     0.344444   
O1       O      0.204970000000     0.620672500000     0.514962500000    -2.2222     
O2       O      0.188237500000     0.649962500000     0.721022500000    -1.17034    
O3       O      0.115390000000     0.657807500000     0.728905000000    -1.31096    
O4       O      0.137350000000     0.726675000000     0.655082500000    -1.52173    
O5       O      0.054310000000     0.721665000000     0.650145000000    -1.36381    
C1       C      0.142557500000     0.663252500000     0.716545000000     0.790962   
C2       C      0.111390000000     0.683760000000     0.694492500000    -0.135423   
C3       C      0.136055000000     0.693020000000     0.681547500000    -0.354856   
C4       C      0.105327500000     0.714752500000     0.659900000000     1.23158    
H2       H      0.067580000000     0.691957500000     0.689235000000     0.0361659  
H3       H      0.180570000000     0.685532500000     0.687095000000     0.0979496  
H1       H      0.230737500000     0.631395000000     0.532665000000     0.344557   
O1       O      0.045030000000     0.745672500000     0.610037500000    -2.20234    
O2       O      0.061762500000     0.524962500000     0.653977500000    -1.15619    
O3       O      0.134610000000     0.532807500000     0.646095000000    -1.30651    
O4       O      0.112650000000     0.601675000000     0.719917500000    -1.5273     
O5       O      0.195690000000     0.596665000000     0.724855000000    -1.3793     
C1       C      0.107442500000     0.538252500000     0.658455000000     0.78338    
C2       C      0.138610000000     0.558760000000     0.680507500000    -0.131187   
C3       C      0.113945000000     0.568020000000     0.693452500000    -0.359138   
C4       C      0.144672500000     0.589752500000     0.715100000000     1.24143    
H2       H      0.182420000000     0.566957500000     0.685765000000     0.0395432  
H3       H      0.069430000000     0.560532500000     0.687905000000     0.0948142  
H1       H      0.019262500000     0.506395000000     0.592335000000     0.336928   
Al1      Al     0.125000000000     0.625000000000     0.750000000000     5.87766    
Al2      Al     0.000000000000     0.625000000000     0.750000000000     5.14521    
O1       O      0.045030000000     0.629327500000     0.985037500000    -2.07519    
O2       O      0.061762500000     0.600037500000     0.778977500000    -1.15622    
O3       O      0.134610000000     0.592192500000     0.771095000000    -1.30648    
O4       O      0.112650000000     0.523325000000     0.844917500000    -1.52799    
O5       O      0.195690000000     0.528335000000     0.849855000000    -1.37989    
C1       C      0.107442500000     0.586747500000     0.783455000000     0.783312   
C2       C      0.138610000000     0.566240000000     0.805507500000    -0.13109    
C3       C      0.113945000000     0.556980000000     0.818452500000    -0.359317   
C4       C      0.144672500000     0.535247500000     0.840100000000     1.24209    
H2       H      0.182420000000     0.558042500000     0.810765000000     0.0394826  
H3       H      0.069430000000     0.564467500000     0.812905000000     0.0948966  
H1       H      0.019262500000     0.618605000000     0.967335000000     0.326138   
Al1      Al     0.125000000000     0.500000000000     0.875000000000     5.8809     
Al2      Al     0.000000000000     0.500000000000     0.875000000000     5.15031    
O1       O      0.204970000000     0.504327500000     0.889962500000    -2.22277    
O2       O      0.188237500000     0.725037500000     0.846022500000    -1.17086    
O3       O      0.115390000000     0.717192500000     0.853905000000    -1.31139    
O4       O      0.137350000000     0.648325000000     0.780082500000    -1.52175    
O5       O      0.054310000000     0.653335000000     0.775145000000    -1.36395    
C1       C      0.142557500000     0.711747500000     0.841545000000     0.791315   
C2       C      0.111390000000     0.691240000000     0.819492500000    -0.135525   
C3       C      0.136055000000     0.681980000000     0.806547500000    -0.354815   
C4       C      0.105327500000     0.660247500000     0.784900000000     1.23162    
H2       H      0.067580000000     0.683042500000     0.814235000000     0.0362474  
H3       H      0.180570000000     0.689467500000     0.812095000000     0.0979046  
H1       H      0.230737500000     0.743605000000     0.907665000000     0.347053   
O1       O      0.204970000000     0.620672500000     0.764962500000    -2.22208    
O2       O      0.188237500000     0.649962500000     0.971022500000    -1.10665    
O3       O      0.115390000000     0.657807500000     0.978905000000    -1.23726    
O4       O      0.137350000000     0.726675000000     0.905082500000    -1.52095    
O5       O      0.054310000000     0.721665000000     0.900145000000    -1.36431    
C1       C      0.142557500000     0.663252500000     0.966545000000     0.76122    
C2       C      0.111390000000     0.683760000000     0.944492500000    -0.12005    
C3       C      0.136055000000     0.693020000000     0.931547500000    -0.358664   
C4       C      0.105327500000     0.714752500000     0.909900000000     1.2352     
H2       H      0.067580000000     0.691957500000     0.939235000000     0.03601    
H3       H      0.180570000000     0.685532500000     0.937095000000     0.102814   
H1       H      0.230737500000     0.631395000000     0.782665000000     0.3445     
O1       O      0.045030000000     0.745672500000     0.860037500000    -2.20392    
O2       O      0.061762500000     0.524962500000     0.903977500000    -1.1561     
O3       O      0.134610000000     0.532807500000     0.896095000000    -1.30658    
O4       O      0.112650000000     0.601675000000     0.969917500000    -1.44765    
O5       O      0.195690000000     0.596665000000     0.974855000000    -1.30267    
C1       C      0.107442500000     0.538252500000     0.908455000000     0.788159   
C2       C      0.138610000000     0.558760000000     0.930507500000    -0.138727   
C3       C      0.113945000000     0.568020000000     0.943452500000    -0.335809   
C4       C      0.144672500000     0.589752500000     0.965100000000     1.192      
H2       H      0.182420000000     0.566957500000     0.935765000000     0.0461298  
H3       H      0.069430000000     0.560532500000     0.937905000000     0.0938488  
H1       H      0.019262500000     0.506395000000     0.842335000000     0.337035   
Al1      Al     0.125000000000     0.875000000000     0.000000000000     5.58441    
Al2      Al     0.000000000000     0.875000000000     0.000000000000     4.88388    
O1       O      0.045030000000     0.879327500000     0.235037500000    -2.20312    
O2       O      0.061762500000     0.850037500000     0.028977500000    -1.11597    
O3       O      0.134610000000     0.842192500000     0.021095000000    -1.26319    
O4       O      0.112650000000     0.773325000000     0.094917500000    -1.52894    
O5       O      0.195690000000     0.778335000000     0.099855000000    -1.38045    
C1       C      0.107442500000     0.836747500000     0.033455000000     0.752636   
C2       C      0.138610000000     0.816240000000     0.055507500000    -0.122361   
C3       C      0.113945000000     0.806980000000     0.068452500000    -0.364967   
C4       C      0.144672500000     0.785247500000     0.090100000000     1.24332    
H2       H      0.182420000000     0.808042500000     0.060765000000     0.0356645  
H3       H      0.069430000000     0.814467500000     0.062905000000     0.0954194  
H1       H      0.019262500000     0.868605000000     0.217335000000     0.337441   
Al1      Al     0.125000000000     0.750000000000     0.125000000000     5.87892    
Al2      Al     0.000000000000     0.750000000000     0.125000000000     5.14876    
O1       O      0.204970000000     0.754327500000     0.139962500000    -2.22233    
O2       O      0.188237500000     0.975037500000     0.096022500000    -1.10538    
O3       O      0.115390000000     0.967192500000     0.103905000000    -1.2453     
O4       O      0.137350000000     0.898325000000     0.030082500000    -1.46684    
O5       O      0.054310000000     0.903335000000     0.025145000000    -1.31805    
C1       C      0.142557500000     0.961747500000     0.091545000000     0.764626   
C2       C      0.111390000000     0.941240000000     0.069492500000    -0.128414   
C3       C      0.136055000000     0.931980000000     0.056547500000    -0.344547   
C4       C      0.105327500000     0.910247500000     0.034900000000     1.18817    
H2       H      0.067580000000     0.933042500000     0.064235000000     0.0373055  
H3       H      0.180570000000     0.939467500000     0.062095000000     0.0984141  
H1       H      0.230737500000     0.993605000000     0.157665000000     0.370599   
O1       O      0.204970000000     0.870672500000     0.014962500000    -2.13798    
O2       O      0.188237500000     0.899962500000     0.221022500000    -1.17065    
O3       O      0.115390000000     0.907807500000     0.228905000000    -1.30985    
O4       O      0.137350000000     0.976675000000     0.155082500000    -1.44322    
O5       O      0.054310000000     0.971665000000     0.150145000000    -1.2953     
C1       C      0.142557500000     0.913252500000     0.216545000000     0.796368   
C2       C      0.111390000000     0.933760000000     0.194492500000    -0.142421   
C3       C      0.136055000000     0.943020000000     0.181547500000    -0.33212    
C4       C      0.105327500000     0.964752500000     0.159900000000     1.18163    
H2       H      0.067580000000     0.941957500000     0.189235000000     0.0431682  
H3       H      0.180570000000     0.935532500000     0.187095000000     0.096046   
H1       H      0.230737500000     0.881395000000     0.032665000000     0.337101   
O1       O      0.045030000000     0.995672500000     0.110037500000    -2.05471    
O2       O      0.061762500000     0.774962500000     0.153977500000    -1.15646    
O3       O      0.134610000000     0.782807500000     0.146095000000    -1.30631    
O4       O      0.112650000000     0.851675000000     0.219917500000    -1.52781    
O5       O      0.195690000000     0.846665000000     0.224855000000    -1.38001    
C1       C      0.107442500000     0.788252500000     0.158455000000     0.783821   
C2       C      0.138610000000     0.808760000000     0.180507500000    -0.130867   
C3       C      0.113945000000     0.818020000000     0.193452500000    -0.359015   
C4       C      0.144672500000     0.839752500000     0.215100000000     1.24219    
H2       H      0.182420000000     0.816957500000     0.185765000000     0.0398256  
H3       H      0.069430000000     0.810532500000     0.187905000000     0.0951827  
H1       H      0.019262500000     0.756395000000     0.092335000000     0.335875   
Al1      Al     0.125000000000     0.875000000000     0.250000000000     5.88119    
Al2      Al     0.000000000000     0.875000000000     0.250000000000     5.14972    
O1       O      0.045030000000     0.879327500000     0.485037500000    -2.20269    
O2       O      0.061762500000     0.850037500000     0.278977500000    -1.157      
O3       O      0.134610000000     0.842192500000     0.271095000000    -1.30706    
O4       O      0.112650000000     0.773325000000     0.344917500000    -1.5273     
O5       O      0.195690000000     0.778335000000     0.349855000000    -1.37931    
C1       C      0.107442500000     0.836747500000     0.283455000000     0.783866   
C2       C      0.138610000000     0.816240000000     0.305507500000    -0.131223   
C3       C      0.113945000000     0.806980000000     0.318452500000    -0.358964   
C4       C      0.144672500000     0.785247500000     0.340100000000     1.24157    
H2       H      0.182420000000     0.808042500000     0.310765000000     0.0396771  
H3       H      0.069430000000     0.814467500000     0.312905000000     0.0949204  
H1       H      0.019262500000     0.868605000000     0.467335000000     0.337086   
Al1      Al     0.125000000000     0.750000000000     0.375000000000     5.8782     
Al2      Al     0.000000000000     0.750000000000     0.375000000000     5.14472    
O1       O      0.204970000000     0.754327500000     0.389962500000    -2.22221    
O2       O      0.188237500000     0.975037500000     0.346022500000    -1.1035     
O3       O      0.115390000000     0.967192500000     0.353905000000    -1.24437    
O4       O      0.137350000000     0.898325000000     0.280082500000    -1.52204    
O5       O      0.054310000000     0.903335000000     0.275145000000    -1.36376    
C1       C      0.142557500000     0.961747500000     0.341545000000     0.762168   
C2       C      0.111390000000     0.941240000000     0.319492500000    -0.119845   
C3       C      0.136055000000     0.931980000000     0.306547500000    -0.358527   
C4       C      0.105327500000     0.910247500000     0.284900000000     1.23598    
H2       H      0.067580000000     0.933042500000     0.314235000000     0.0354289  
H3       H      0.180570000000     0.939467500000     0.312095000000     0.103454   
H1       H      0.230737500000     0.993605000000     0.407665000000     0.370448   
O1       O      0.204970000000     0.870672500000     0.264962500000    -2.22334    
O2       O      0.188237500000     0.899962500000     0.471022500000    -1.17072    
O3       O      0.115390000000     0.907807500000     0.478905000000    -1.30989    
O4       O      0.137350000000     0.976675000000     0.405082500000    -1.44314    
O5       O      0.054310000000     0.971665000000     0.400145000000    -1.29494    
C1       C      0.142557500000     0.913252500000     0.466545000000     0.796162   
C2       C      0.111390000000     0.933760000000     0.444492500000    -0.142677   
C3       C      0.136055000000     0.943020000000     0.431547500000    -0.332281   
C4       C      0.105327500000     0.964752500000     0.409900000000     1.1811     
H2       H      0.067580000000     0.941957500000     0.439235000000     0.0428911  
H3       H      0.180570000000     0.935532500000     0.437095000000     0.0958053  
H1       H      0.230737500000     0.881395000000     0.282665000000     0.345375   
O1       O      0.045030000000     0.995672500000     0.360037500000    -2.05395    
O2       O      0.061762500000     0.774962500000     0.403977500000    -1.15618    
O3       O      0.134610000000     0.782807500000     0.396095000000    -1.30645    
O4       O      0.112650000000     0.851675000000     0.469917500000    -1.52786    
O5       O      0.195690000000     0.846665000000     0.474855000000    -1.38002    
C1       C      0.107442500000     0.788252500000     0.408455000000     0.783393   
C2       C      0.138610000000     0.808760000000     0.430507500000    -0.131054   
C3       C      0.113945000000     0.818020000000     0.443452500000    -0.359253   
C4       C      0.144672500000     0.839752500000     0.465100000000     1.24196    
H2       H      0.182420000000     0.816957500000     0.435765000000     0.0395906  
H3       H      0.069430000000     0.810532500000     0.437905000000     0.0948883  
H1       H      0.019262500000     0.756395000000     0.342335000000     0.336969   
Al1      Al     0.125000000000     0.875000000000     0.500000000000     5.88023    
Al2      Al     0.000000000000     0.875000000000     0.500000000000     5.1475     
O1       O      0.045030000000     0.879327500000     0.735037500000    -2.20281    
O2       O      0.061762500000     0.850037500000     0.528977500000    -1.15681    
O3       O      0.134610000000     0.842192500000     0.521095000000    -1.30699    
O4       O      0.112650000000     0.773325000000     0.594917500000    -1.5273     
O5       O      0.195690000000     0.778335000000     0.599855000000    -1.37929    
C1       C      0.107442500000     0.836747500000     0.533455000000     0.783602   
C2       C      0.138610000000     0.816240000000     0.555507500000    -0.131299   
C3       C      0.113945000000     0.806980000000     0.568452500000    -0.359091   
C4       C      0.144672500000     0.785247500000     0.590100000000     1.24141    
H2       H      0.182420000000     0.808042500000     0.560765000000     0.0395603  
H3       H      0.069430000000     0.814467500000     0.562905000000     0.0947793  
H1       H      0.019262500000     0.868605000000     0.717335000000     0.337027   
Al1      Al     0.125000000000     0.750000000000     0.625000000000     5.87755    
Al2      Al     0.000000000000     0.750000000000     0.625000000000     5.14413    
O1       O      0.204970000000     0.754327500000     0.639962500000    -2.22206    
O2       O      0.188237500000     0.975037500000     0.596022500000    -1.1035     
O3       O      0.115390000000     0.967192500000     0.603905000000    -1.24439    
O4       O      0.137350000000     0.898325000000     0.530082500000    -1.52191    
O5       O      0.054310000000     0.903335000000     0.525145000000    -1.36354    
C1       C      0.142557500000     0.961747500000     0.591545000000     0.762027   
C2       C      0.111390000000     0.941240000000     0.569492500000    -0.119984   
C3       C      0.136055000000     0.931980000000     0.556547500000    -0.358585   
C4       C      0.105327500000     0.910247500000     0.534900000000     1.23566    
H2       H      0.067580000000     0.933042500000     0.564235000000     0.0352957  
H3       H      0.180570000000     0.939467500000     0.562095000000     0.103332   
H1       H      0.230737500000     0.993605000000     0.657665000000     0.37033    
O1       O      0.204970000000     0.870672500000     0.514962500000    -2.2231     
O2       O      0.188237500000     0.899962500000     0.721022500000    -1.17073    
O3       O      0.115390000000     0.907807500000     0.728905000000    -1.30991    
O4       O      0.137350000000     0.976675000000     0.655082500000    -1.44312    
O5       O      0.054310000000     0.971665000000     0.650145000000    -1.29492    
C1       C      0.142557500000     0.913252500000     0.716545000000     0.796015   
C2       C      0.111390000000     0.933760000000     0.694492500000    -0.142788   
C3       C      0.136055000000     0.943020000000     0.681547500000    -0.332378   
C4       C      0.105327500000     0.964752500000     0.659900000000     1.18093    
H2       H      0.067580000000     0.941957500000     0.689235000000     0.0427948  
H3       H      0.180570000000     0.935532500000     0.687095000000     0.0956897  
H1       H      0.230737500000     0.881395000000     0.532665000000     0.345258   
O1       O      0.045030000000     0.995672500000     0.610037500000    -2.05381    
O2       O      0.061762500000     0.774962500000     0.653977500000    -1.15617    
O3       O      0.134610000000     0.782807500000     0.646095000000    -1.30645    
O4       O      0.112650000000     0.851675000000     0.719917500000    -1.52785    
O5       O      0.195690000000     0.846665000000     0.724855000000    -1.38001    
C1       C      0.107442500000     0.788252500000     0.658455000000     0.783243   
C2       C      0.138610000000     0.808760000000     0.680507500000    -0.131158   
C3       C      0.113945000000     0.818020000000     0.693452500000    -0.359358   
C4       C      0.144672500000     0.839752500000     0.715100000000     1.24179    
H2       H      0.182420000000     0.816957500000     0.685765000000     0.039479   
H3       H      0.069430000000     0.810532500000     0.687905000000     0.0947868  
H1       H      0.019262500000     0.756395000000     0.592335000000     0.33682    
Al1      Al     0.125000000000     0.875000000000     0.750000000000     5.8797     
Al2      Al     0.000000000000     0.875000000000     0.750000000000     5.14836    
O1       O      0.045030000000     0.879327500000     0.985037500000    -2.07552    
O2       O      0.061762500000     0.850037500000     0.778977500000    -1.15691    
O3       O      0.134610000000     0.842192500000     0.771095000000    -1.30702    
O4       O      0.112650000000     0.773325000000     0.844917500000    -1.52794    
O5       O      0.195690000000     0.778335000000     0.849855000000    -1.37983    
C1       C      0.107442500000     0.836747500000     0.783455000000     0.783518   
C2       C      0.138610000000     0.816240000000     0.805507500000    -0.131275   
C3       C      0.113945000000     0.806980000000     0.818452500000    -0.359308   
C4       C      0.144672500000     0.785247500000     0.840100000000     1.24192    
H2       H      0.182420000000     0.808042500000     0.810765000000     0.0394385  
H3       H      0.069430000000     0.814467500000     0.812905000000     0.094818   
H1       H      0.019262500000     0.868605000000     0.967335000000     0.326293   
Al1      Al     0.125000000000     0.750000000000     0.875000000000     5.88023    
Al2      Al     0.000000000000     0.750000000000     0.875000000000     5.14972    
O1       O      0.204970000000     0.754327500000     0.889962500000    -2.22261    
O2       O      0.188237500000     0.975037500000     0.846022500000    -1.10409    
O3       O      0.115390000000     0.967192500000     0.853905000000    -1.24492    
O4       O      0.137350000000     0.898325000000     0.780082500000    -1.5219     
O5       O      0.054310000000     0.903335000000     0.775145000000    -1.36367    
C1       C      0.142557500000     0.961747500000     0.841545000000     0.762361   
C2       C      0.111390000000     0.941240000000     0.819492500000    -0.120157   
C3       C      0.136055000000     0.931980000000     0.806547500000    -0.358591   
C4       C      0.105327500000     0.910247500000     0.784900000000     1.23559    
H2       H      0.067580000000     0.933042500000     0.814235000000     0.0353308  
H3       H      0.180570000000     0.939467500000     0.812095000000     0.103228   
H1       H      0.230737500000     0.993605000000     0.907665000000     0.372915   
O1       O      0.204970000000     0.870672500000     0.764962500000    -2.22298    
O2       O      0.188237500000     0.899962500000     0.971022500000    -1.10708    
O3       O      0.115390000000     0.907807500000     0.978905000000    -1.23626    
O4       O      0.137350000000     0.976675000000     0.905082500000    -1.44239    
O5       O      0.054310000000     0.971665000000     0.900145000000    -1.29546    
C1       C      0.142557500000     0.913252500000     0.966545000000     0.766284   
C2       C      0.111390000000     0.933760000000     0.944492500000    -0.12742    
C3       C      0.136055000000     0.943020000000     0.931547500000    -0.336199   
C4       C      0.105327500000     0.964752500000     0.909900000000     1.18458    
H2       H      0.067580000000     0.941957500000     0.939235000000     0.0426333  
H3       H      0.180570000000     0.935532500000     0.937095000000     0.100552   
H1       H      0.230737500000     0.881395000000     0.782665000000     0.345201   
O1       O      0.045030000000     0.995672500000     0.860037500000    -2.05548    
O2       O      0.061762500000     0.774962500000     0.903977500000    -1.15608    
O3       O      0.134610000000     0.782807500000     0.896095000000    -1.30652    
O4       O      0.112650000000     0.851675000000     0.969917500000    -1.44824    
O5       O      0.195690000000     0.846665000000     0.974855000000    -1.30342    
C1       C      0.107442500000     0.788252500000     0.908455000000     0.788019   
C2       C      0.138610000000     0.808760000000     0.930507500000    -0.138692   
C3       C      0.113945000000     0.818020000000     0.943452500000    -0.336041   
C4       C      0.144672500000     0.839752500000     0.965100000000     1.19239    
H2       H      0.182420000000     0.816957500000     0.935765000000     0.0460624  
H3       H      0.069430000000     0.810532500000     0.937905000000     0.0938223  
H1       H      0.019262500000     0.756395000000     0.842335000000     0.336927   
Al1      Al     0.375000000000     0.125000000000     0.000000000000     5.59552    
Al2      Al     0.250000000000     0.125000000000     0.000000000000     5.00274    
O1       O      0.295030000000     0.129327500000     0.235037500000    -2.22526    
O2       O      0.311762500000     0.100037500000     0.028977500000    -1.12945    
O3       O      0.384610000000     0.092192500000     0.021095000000    -1.26801    
O4       O      0.362650000000     0.023325000000     0.094917500000    -1.4769     
O5       O      0.445690000000     0.028335000000     0.099855000000    -1.33084    
C1       C      0.357442500000     0.086747500000     0.033455000000     0.762032   
C2       C      0.388610000000     0.066240000000     0.055507500000    -0.131785   
C3       C      0.363945000000     0.056980000000     0.068452500000    -0.349307   
C4       C      0.394672500000     0.035247500000     0.090100000000     1.20055    
H2       H      0.432420000000     0.058042500000     0.060765000000     0.0378943  
H3       H      0.319430000000     0.064467500000     0.062905000000     0.09567    
H1       H      0.269262500000     0.118605000000     0.217335000000     0.345231   
Al1      Al     0.375000000000     0.000000000000     0.125000000000     5.60612    
Al2      Al     0.250000000000     0.000000000000     0.125000000000     5.01244    
O1       O      0.454970000000     0.004327500000     0.139962500000    -2.16701    
O2       O      0.438237500000     0.225037500000     0.096022500000    -1.17221    
O3       O      0.365390000000     0.217192500000     0.103905000000    -1.31145    
O4       O      0.387350000000     0.148325000000     0.030082500000    -1.47165    
O5       O      0.304310000000     0.153335000000     0.025145000000    -1.33264    
C1       C      0.392557500000     0.211747500000     0.091545000000     0.794547   
C2       C      0.361390000000     0.191240000000     0.069492500000    -0.14106    
C3       C      0.386055000000     0.181980000000     0.056547500000    -0.342404   
C4       C      0.355327500000     0.160247500000     0.034900000000     1.19446    
H2       H      0.317580000000     0.183042500000     0.064235000000     0.0424487  
H3       H      0.430570000000     0.189467500000     0.062095000000     0.0941554  
H1       H      0.480737500000     0.243605000000     0.157665000000     0.345419   
O1       O      0.454970000000     0.120672500000     0.014962500000    -2.13996    
O2       O      0.438237500000     0.149962500000     0.221022500000    -1.1701     
O3       O      0.365390000000     0.157807500000     0.228905000000    -1.31051    
O4       O      0.387350000000     0.226675000000     0.155082500000    -1.52746    
O5       O      0.304310000000     0.221665000000     0.150145000000    -1.37928    
C1       C      0.392557500000     0.163252500000     0.216545000000     0.792231   
C2       C      0.361390000000     0.183760000000     0.194492500000    -0.13217    
C3       C      0.386055000000     0.193020000000     0.181547500000    -0.356445   
C4       C      0.355327500000     0.214752500000     0.159900000000     1.24313    
H2       H      0.317580000000     0.191957500000     0.189235000000     0.0407637  
H3       H      0.430570000000     0.185532500000     0.187095000000     0.0994546  
H1       H      0.480737500000     0.131395000000     0.032665000000     0.33727    
O1       O      0.295030000000     0.245672500000     0.110037500000    -2.22525    
O2       O      0.311762500000     0.024962500000     0.153977500000    -1.13492    
O3       O      0.384610000000     0.032807500000     0.146095000000    -1.26316    
O4       O      0.362650000000     0.101675000000     0.219917500000    -1.52838    
O5       O      0.445690000000     0.096665000000     0.224855000000    -1.3811     
C1       C      0.357442500000     0.038252500000     0.158455000000     0.761494   
C2       C      0.388610000000     0.058760000000     0.180507500000    -0.124164   
C3       C      0.363945000000     0.068020000000     0.193452500000    -0.362564   
C4       C      0.394672500000     0.089752500000     0.215100000000     1.24417    
H2       H      0.432420000000     0.066957500000     0.185765000000     0.037232   
H3       H      0.319430000000     0.060532500000     0.187905000000     0.0989701  
H1       H      0.269262500000     0.006395000000     0.092335000000     0.299548   
Al1      Al     0.375000000000     0.125000000000     0.250000000000     5.89465    
Al2      Al     0.250000000000     0.125000000000     0.250000000000     5.27512    
O1       O      0.295030000000     0.129327500000     0.485037500000    -2.22508    
O2       O      0.311762500000     0.100037500000     0.278977500000    -1.17128    
O3       O      0.384610000000     0.092192500000     0.271095000000    -1.3123     
O4       O      0.362650000000     0.023325000000     0.344917500000    -1.47521    
O5       O      0.445690000000     0.028335000000     0.349855000000    -1.32967    
C1       C      0.357442500000     0.086747500000     0.283455000000     0.79377    
C2       C      0.388610000000     0.066240000000     0.305507500000    -0.140777   
C3       C      0.363945000000     0.056980000000     0.318452500000    -0.343181   
C4       C      0.394672500000     0.035247500000     0.340100000000     1.19877    
H2       H      0.432420000000     0.058042500000     0.310765000000     0.0419589  
H3       H      0.319430000000     0.064467500000     0.312905000000     0.0952905  
H1       H      0.269262500000     0.118605000000     0.467335000000     0.345006   
Al1      Al     0.375000000000     0.000000000000     0.375000000000     5.60556    
Al2      Al     0.250000000000     0.000000000000     0.375000000000     5.01125    
O1       O      0.454970000000     0.004327500000     0.389962500000    -2.16692    
O2       O      0.438237500000     0.225037500000     0.346022500000    -1.17036    
O3       O      0.365390000000     0.217192500000     0.353905000000    -1.31054    
O4       O      0.387350000000     0.148325000000     0.280082500000    -1.52741    
O5       O      0.304310000000     0.153335000000     0.275145000000    -1.37925    
C1       C      0.392557500000     0.211747500000     0.341545000000     0.792104   
C2       C      0.361390000000     0.191240000000     0.319492500000    -0.132351   
C3       C      0.386055000000     0.181980000000     0.306547500000    -0.356559   
C4       C      0.355327500000     0.160247500000     0.284900000000     1.24299    
H2       H      0.317580000000     0.183042500000     0.314235000000     0.0406877  
H3       H      0.430570000000     0.189467500000     0.312095000000     0.0992577  
H1       H      0.480737500000     0.243605000000     0.407665000000     0.345268   
O1       O      0.454970000000     0.120672500000     0.264962500000    -2.2258     
O2       O      0.438237500000     0.149962500000     0.471022500000    -1.17016    
O3       O      0.365390000000     0.157807500000     0.478905000000    -1.31054    
O4       O      0.387350000000     0.226675000000     0.405082500000    -1.52758    
O5       O      0.304310000000     0.221665000000     0.400145000000    -1.37933    
C1       C      0.392557500000     0.163252500000     0.466545000000     0.792029   
C2       C      0.361390000000     0.183760000000     0.444492500000    -0.132355   
C3       C      0.386055000000     0.193020000000     0.431547500000    -0.356674   
C4       C      0.355327500000     0.214752500000     0.409900000000     1.2429     
H2       H      0.317580000000     0.191957500000     0.439235000000     0.0405629  
H3       H      0.430570000000     0.185532500000     0.437095000000     0.0992377  
H1       H      0.480737500000     0.131395000000     0.282665000000     0.345612   
O1       O      0.295030000000     0.245672500000     0.360037500000    -2.2251     
O2       O      0.311762500000     0.024962500000     0.403977500000    -1.13495    
O3       O      0.384610000000     0.032807500000     0.396095000000    -1.26337    
O4       O      0.362650000000     0.101675000000     0.469917500000    -1.52842    
O5       O      0.445690000000     0.096665000000     0.474855000000    -1.38111    
C1       C      0.357442500000     0.038252500000     0.408455000000     0.761249   
C2       C      0.388610000000     0.058760000000     0.430507500000    -0.124385   
C3       C      0.363945000000     0.068020000000     0.443452500000    -0.362749   
C4       C      0.394672500000     0.089752500000     0.465100000000     1.24395    
H2       H      0.432420000000     0.066957500000     0.435765000000     0.0370137  
H3       H      0.319430000000     0.060532500000     0.437905000000     0.0987587  
H1       H      0.269262500000     0.006395000000     0.342335000000     0.300837   
Al1      Al     0.375000000000     0.125000000000     0.500000000000     5.89388    
Al2      Al     0.250000000000     0.125000000000     0.500000000000     5.27435    
O1       O      0.295030000000     0.129327500000     0.735037500000    -2.22493    
O2       O      0.311762500000     0.100037500000     0.528977500000    -1.17126    
O3       O      0.384610000000     0.092192500000     0.521095000000    -1.31228    
O4       O      0.362650000000     0.023325000000     0.594917500000    -1.47518    
O5       O      0.445690000000     0.028335000000     0.599855000000    -1.32965    
C1       C      0.357442500000     0.086747500000     0.533455000000     0.793608   
C2       C      0.388610000000     0.066240000000     0.555507500000    -0.140874   
C3       C      0.363945000000     0.056980000000     0.568452500000    -0.343278   
C4       C      0.394672500000     0.035247500000     0.590100000000     1.1986     
H2       H      0.432420000000     0.058042500000     0.560765000000     0.0418522  
H3       H      0.319430000000     0.064467500000     0.562905000000     0.0951822  
H1       H      0.269262500000     0.118605000000     0.717335000000     0.344892   
Al1      Al     0.375000000000     0.000000000000     0.625000000000     5.60491    
Al2      Al     0.250000000000     0.000000000000     0.625000000000     5.01062    
O1       O      0.454970000000     0.004327500000     0.639962500000    -2.16677    
O2       O      0.438237500000     0.225037500000     0.596022500000    -1.17036    
O3       O      0.365390000000     0.217192500000     0.603905000000    -1.31054    
O4       O      0.387350000000     0.148325000000     0.530082500000    -1.52735    
O5       O      0.304310000000     0.153335000000     0.525145000000    -1.3792     
C1       C      0.392557500000     0.211747500000     0.591545000000     0.791964   
C2       C      0.361390000000     0.191240000000     0.569492500000    -0.132457   
C3       C      0.386055000000     0.181980000000     0.556547500000    -0.356644   
C4       C      0.355327500000     0.160247500000     0.534900000000     1.24279    
H2       H      0.317580000000     0.183042500000     0.564235000000     0.0405848  
H3       H      0.430570000000     0.189467500000     0.562095000000     0.0991477  
H1       H      0.480737500000     0.243605000000     0.657665000000     0.345154   
O1       O      0.454970000000     0.120672500000     0.514962500000    -2.22561    
O2       O      0.438237500000     0.149962500000     0.721022500000    -1.17016    
O3       O      0.365390000000     0.157807500000     0.728905000000    -1.31055    
O4       O      0.387350000000     0.226675000000     0.655082500000    -1.52755    
O5       O      0.304310000000     0.221665000000     0.650145000000    -1.37931    
C1       C      0.392557500000     0.163252500000     0.716545000000     0.791876   
C2       C      0.361390000000     0.183760000000     0.694492500000    -0.132462   
C3       C      0.386055000000     0.193020000000     0.681547500000    -0.356772   
C4       C      0.355327500000     0.214752500000     0.659900000000     1.24273    
H2       H      0.317580000000     0.191957500000     0.689235000000     0.0404518  
H3       H      0.430570000000     0.185532500000     0.687095000000     0.0991247  
H1       H      0.480737500000     0.131395000000     0.532665000000     0.3455     
O1       O      0.295030000000     0.245672500000     0.610037500000    -2.22495    
O2       O      0.311762500000     0.024962500000     0.653977500000    -1.13496    
O3       O      0.384610000000     0.032807500000     0.646095000000    -1.26337    
O4       O      0.362650000000     0.101675000000     0.719917500000    -1.52839    
O5       O      0.445690000000     0.096665000000     0.724855000000    -1.3811     
C1       C      0.357442500000     0.038252500000     0.658455000000     0.761105   
C2       C      0.388610000000     0.058760000000     0.680507500000    -0.12449    
C3       C      0.363945000000     0.068020000000     0.693452500000    -0.362848   
C4       C      0.394672500000     0.089752500000     0.715100000000     1.24377    
H2       H      0.432420000000     0.066957500000     0.685765000000     0.0369049  
H3       H      0.319430000000     0.060532500000     0.687905000000     0.0986447  
H1       H      0.269262500000     0.006395000000     0.592335000000     0.300722   
Al1      Al     0.375000000000     0.125000000000     0.750000000000     5.8932     
Al2      Al     0.250000000000     0.125000000000     0.750000000000     5.27368    
O1       O      0.295030000000     0.129327500000     0.985037500000    -2.09603    
O2       O      0.311762500000     0.100037500000     0.778977500000    -1.17121    
O3       O      0.384610000000     0.092192500000     0.771095000000    -1.31226    
O4       O      0.362650000000     0.023325000000     0.844917500000    -1.47583    
O5       O      0.445690000000     0.028335000000     0.849855000000    -1.3302     
C1       C      0.357442500000     0.086747500000     0.783455000000     0.793436   
C2       C      0.388610000000     0.066240000000     0.805507500000    -0.140833   
C3       C      0.363945000000     0.056980000000     0.818452500000    -0.343519   
C4       C      0.394672500000     0.035247500000     0.840100000000     1.19912    
H2       H      0.432420000000     0.058042500000     0.810765000000     0.0417241  
H3       H      0.319430000000     0.064467500000     0.812905000000     0.095164   
H1       H      0.269262500000     0.118605000000     0.967335000000     0.333846   
Al1      Al     0.375000000000     0.000000000000     0.875000000000     5.60742    
Al2      Al     0.250000000000     0.000000000000     0.875000000000     5.01325    
O1       O      0.454970000000     0.004327500000     0.889962500000    -2.16728    
O2       O      0.438237500000     0.225037500000     0.846022500000    -1.1709     
O3       O      0.365390000000     0.217192500000     0.853905000000    -1.31102    
O4       O      0.387350000000     0.148325000000     0.780082500000    -1.52728    
O5       O      0.304310000000     0.153335000000     0.775145000000    -1.37916    
C1       C      0.392557500000     0.211747500000     0.841545000000     0.792266   
C2       C      0.361390000000     0.191240000000     0.819492500000    -0.132648   
C3       C      0.386055000000     0.181980000000     0.806547500000    -0.356629   
C4       C      0.355327500000     0.160247500000     0.784900000000     1.2426     
H2       H      0.317580000000     0.183042500000     0.814235000000     0.0405577  
H3       H      0.430570000000     0.189467500000     0.812095000000     0.0990385  
H1       H      0.480737500000     0.243605000000     0.907665000000     0.347742   
O1       O      0.454970000000     0.120672500000     0.764962500000    -2.22545    
O2       O      0.438237500000     0.149962500000     0.971022500000    -1.10632    
O3       O      0.365390000000     0.157807500000     0.978905000000    -1.23651    
O4       O      0.387350000000     0.226675000000     0.905082500000    -1.52665    
O5       O      0.304310000000     0.221665000000     0.900145000000    -1.37945    
C1       C      0.392557500000     0.163252500000     0.966545000000     0.761979   
C2       C      0.361390000000     0.183760000000     0.944492500000    -0.117102   
C3       C      0.386055000000     0.193020000000     0.931547500000    -0.360553   
C4       C      0.355327500000     0.214752500000     0.909900000000     1.24611    
H2       H      0.317580000000     0.191957500000     0.939235000000     0.040181   
H3       H      0.430570000000     0.185532500000     0.937095000000     0.103971   
H1       H      0.480737500000     0.131395000000     0.782665000000     0.345438   
O1       O      0.295030000000     0.245672500000     0.860037500000    -2.22599    
O2       O      0.311762500000     0.024962500000     0.903977500000    -1.13456    
O3       O      0.384610000000     0.032807500000     0.896095000000    -1.26337    
O4       O      0.362650000000     0.101675000000     0.969917500000    -1.44832    
O5       O      0.445690000000     0.096665000000     0.974855000000    -1.30429    
C1       C      0.357442500000     0.038252500000     0.908455000000     0.765724   
C2       C      0.388610000000     0.058760000000     0.930507500000    -0.132037   
C3       C      0.363945000000     0.068020000000     0.943452500000    -0.339491   
C4       C      0.394672500000     0.089752500000     0.965100000000     1.1941     
H2       H      0.432420000000     0.066957500000     0.935765000000     0.0434802  
H3       H      0.319430000000     0.060532500000     0.937905000000     0.0975651  
H1       H      0.269262500000     0.006395000000     0.842335000000     0.300704   
Al1      Al     0.375000000000     0.375000000000     0.000000000000     5.59476    
Al2      Al     0.250000000000     0.375000000000     0.000000000000     5.0023     
O1       O      0.295030000000     0.379327500000     0.235037500000    -2.22514    
O2       O      0.311762500000     0.350037500000     0.028977500000    -1.12836    
O3       O      0.384610000000     0.342192500000     0.021095000000    -1.26628    
O4       O      0.362650000000     0.273325000000     0.094917500000    -1.52937    
O5       O      0.445690000000     0.278335000000     0.099855000000    -1.38089    
C1       C      0.357442500000     0.336747500000     0.033455000000     0.760153   
C2       C      0.388610000000     0.316240000000     0.055507500000    -0.123425   
C3       C      0.363945000000     0.306980000000     0.068452500000    -0.362994   
C4       C      0.394672500000     0.285247500000     0.090100000000     1.24471    
H2       H      0.432420000000     0.308042500000     0.060765000000     0.0364263  
H3       H      0.319430000000     0.314467500000     0.062905000000     0.0994638  
H1       H      0.269262500000     0.368605000000     0.217335000000     0.345204   
Al1      Al     0.375000000000     0.250000000000     0.125000000000     5.89444    
Al2      Al     0.250000000000     0.250000000000     0.125000000000     5.27589    
O1       O      0.454970000000     0.254327500000     0.139962500000    -2.22551    
O2       O      0.438237500000     0.475037500000     0.096022500000    -1.17224    
O3       O      0.365390000000     0.467192500000     0.103905000000    -1.31153    
O4       O      0.387350000000     0.398325000000     0.030082500000    -1.47186    
O5       O      0.304310000000     0.403335000000     0.025145000000    -1.33281    
C1       C      0.392557500000     0.461747500000     0.091545000000     0.794301   
C2       C      0.361390000000     0.441240000000     0.069492500000    -0.141253   
C3       C      0.386055000000     0.431980000000     0.056547500000    -0.342672   
C4       C      0.355327500000     0.410247500000     0.034900000000     1.19425    
H2       H      0.317580000000     0.433042500000     0.064235000000     0.0421937  
H3       H      0.430570000000     0.439467500000     0.062095000000     0.0939537  
H1       H      0.480737500000     0.493605000000     0.157665000000     0.345275   
O1       O      0.454970000000     0.370672500000     0.014962500000    -2.13955    
O2       O      0.438237500000     0.399962500000     0.221022500000    -1.17036    
O3       O      0.365390000000     0.407807500000     0.228905000000    -1.31065    
O4       O      0.387350000000     0.476675000000     0.155082500000    -1.52745    
O5       O      0.304310000000     0.471665000000     0.150145000000    -1.37931    
C1       C      0.392557500000     0.413252500000     0.216545000000     0.792027   
C2       C      0.361390000000     0.433760000000     0.194492500000    -0.132424   
C3       C      0.386055000000     0.443020000000     0.181547500000    -0.356634   
C4       C      0.355327500000     0.464752500000     0.159900000000     1.24287    
H2       H      0.317580000000     0.441957500000     0.189235000000     0.0405768  
H3       H      0.430570000000     0.435532500000     0.187095000000     0.0992182  
H1       H      0.480737500000     0.381395000000     0.032665000000     0.336877   
O1       O      0.295030000000     0.495672500000     0.110037500000    -2.22508    
O2       O      0.311762500000     0.274962500000     0.153977500000    -1.1702     
O3       O      0.384610000000     0.282807500000     0.146095000000    -1.31042    
O4       O      0.362650000000     0.351675000000     0.219917500000    -1.5276     
O5       O      0.445690000000     0.346665000000     0.224855000000    -1.37965    
C1       C      0.357442500000     0.288252500000     0.158455000000     0.7921     
C2       C      0.388610000000     0.308760000000     0.180507500000    -0.132259   
C3       C      0.363945000000     0.318020000000     0.193452500000    -0.356717   
C4       C      0.394672500000     0.339752500000     0.215100000000     1.24303    
H2       H      0.432420000000     0.316957500000     0.185765000000     0.0406523  
H3       H      0.319430000000     0.310532500000     0.187905000000     0.0992429  
H1       H      0.269262500000     0.256395000000     0.092335000000     0.343766   
Al1      Al     0.375000000000     0.375000000000     0.250000000000     5.89408    
Al2      Al     0.250000000000     0.375000000000     0.250000000000     5.27485    
O1       O      0.295030000000     0.379327500000     0.485037500000    -2.22495    
O2       O      0.311762500000     0.350037500000     0.278977500000    -1.17021    
O3       O      0.384610000000     0.342192500000     0.271095000000    -1.3106     
O4       O      0.362650000000     0.273325000000     0.344917500000    -1.52771    
O5       O      0.445690000000     0.278335000000     0.349855000000    -1.37975    
C1       C      0.357442500000     0.336747500000     0.283455000000     0.791911   
C2       C      0.388610000000     0.316240000000     0.305507500000    -0.132416   
C3       C      0.363945000000     0.306980000000     0.318452500000    -0.356872   
C4       C      0.394672500000     0.285247500000     0.340100000000     1.24296    
H2       H      0.432420000000     0.308042500000     0.310765000000     0.0404937  
H3       H      0.319430000000     0.314467500000     0.312905000000     0.0990875  
H1       H      0.269262500000     0.368605000000     0.467335000000     0.344979   
Al1      Al     0.375000000000     0.250000000000     0.375000000000     5.89408    
Al2      Al     0.250000000000     0.250000000000     0.375000000000     5.27488    
O1       O      0.454970000000     0.254327500000     0.389962500000    -2.22547    
O2       O      0.438237500000     0.475037500000     0.346022500000    -1.17039    
O3       O      0.365390000000     0.467192500000     0.353905000000    -1.31063    
O4       O      0.387350000000     0.398325000000     0.280082500000    -1.52765    
O5       O      0.304310000000     0.403335000000     0.275145000000    -1.37945    
C1       C      0.392557500000     0.461747500000     0.341545000000     0.791856   
C2       C      0.361390000000     0.441240000000     0.319492500000    -0.132539   
C3       C      0.386055000000     0.431980000000     0.306547500000    -0.356836   
C4       C      0.355327500000     0.410247500000     0.284900000000     1.2428     
H2       H      0.317580000000     0.433042500000     0.314235000000     0.040431   
H3       H      0.430570000000     0.439467500000     0.312095000000     0.0990587  
H1       H      0.480737500000     0.493605000000     0.407665000000     0.345124   
O1       O      0.454970000000     0.370672500000     0.264962500000    -2.22545    
O2       O      0.438237500000     0.399962500000     0.471022500000    -1.17042    
O3       O      0.365390000000     0.407807500000     0.478905000000    -1.31068    
O4       O      0.387350000000     0.476675000000     0.405082500000    -1.52757    
O5       O      0.304310000000     0.471665000000     0.400145000000    -1.37936    
C1       C      0.392557500000     0.413252500000     0.466545000000     0.791825   
C2       C      0.361390000000     0.433760000000     0.444492500000    -0.132609   
C3       C      0.386055000000     0.443020000000     0.431547500000    -0.356863   
C4       C      0.355327500000     0.464752500000     0.409900000000     1.24263    
H2       H      0.317580000000     0.441957500000     0.439235000000     0.0403756  
H3       H      0.430570000000     0.435532500000     0.437095000000     0.099001   
H1       H      0.480737500000     0.381395000000     0.282665000000     0.345222   
O1       O      0.295030000000     0.495672500000     0.360037500000    -2.22494    
O2       O      0.311762500000     0.274962500000     0.403977500000    -1.17026    
O3       O      0.384610000000     0.282807500000     0.396095000000    -1.31066    
O4       O      0.362650000000     0.351675000000     0.469917500000    -1.52764    
O5       O      0.445690000000     0.346665000000     0.474855000000    -1.37966    
C1       C      0.357442500000     0.288252500000     0.408455000000     0.791876   
C2       C      0.388610000000     0.308760000000     0.430507500000    -0.132486   
C3       C      0.363945000000     0.318020000000     0.443452500000    -0.356899   
C4       C      0.394672500000     0.339752500000     0.465100000000     1.2428     
H2       H      0.432420000000     0.316957500000     0.435765000000     0.0404358  
H3       H      0.319430000000     0.310532500000     0.437905000000     0.0990308  
H1       H      0.269262500000     0.256395000000     0.342335000000     0.345087   
Al1      Al     0.375000000000     0.375000000000     0.500000000000     5.89331    
Al2      Al     0.250000000000     0.375000000000     0.500000000000     5.27408    
O1       O      0.295030000000     0.379327500000     0.735037500000    -2.2248     
O2       O      0.311762500000     0.350037500000     0.528977500000    -1.17019    
O3       O      0.384610000000     0.342192500000     0.521095000000    -1.31058    
O4       O      0.362650000000     0.273325000000     0.594917500000    -1.52769    
O5       O      0.445690000000     0.278335000000     0.599855000000    -1.37973    
C1       C      0.357442500000     0.336747500000     0.533455000000     0.791749   
C2       C      0.388610000000     0.316240000000     0.555507500000    -0.132513   
C3       C      0.363945000000     0.306980000000     0.568452500000    -0.356969   
C4       C      0.394672500000     0.285247500000     0.590100000000     1.2428     
H2       H      0.432420000000     0.308042500000     0.560765000000     0.0403874  
H3       H      0.319430000000     0.314467500000     0.562905000000     0.0989796  
H1       H      0.269262500000     0.368605000000     0.717335000000     0.344865   
Al1      Al     0.375000000000     0.250000000000     0.625000000000     5.89344    
Al2      Al     0.250000000000     0.250000000000     0.625000000000     5.27425    
O1       O      0.454970000000     0.254327500000     0.639962500000    -2.22532    
O2       O      0.438237500000     0.475037500000     0.596022500000    -1.17039    
O3       O      0.365390000000     0.467192500000     0.603905000000    -1.31063    
O4       O      0.387350000000     0.398325000000     0.530082500000    -1.52759    
O5       O      0.304310000000     0.403335000000     0.525145000000    -1.3794     
C1       C      0.392557500000     0.461747500000     0.591545000000     0.791716   
C2       C      0.361390000000     0.441240000000     0.569492500000    -0.132645   
C3       C      0.386055000000     0.431980000000     0.556547500000    -0.356922   
C4       C      0.355327500000     0.410247500000     0.534900000000     1.2426     
H2       H      0.317580000000     0.433042500000     0.564235000000     0.0403279  
H3       H      0.430570000000     0.439467500000     0.562095000000     0.0989485  
H1       H      0.480737500000     0.493605000000     0.657665000000     0.34501    
O1       O      0.454970000000     0.370672500000     0.514962500000    -2.22526    
O2       O      0.438237500000     0.399962500000     0.721022500000    -1.17042    
O3       O      0.365390000000     0.407807500000     0.728905000000    -1.31069    
O4       O      0.387350000000     0.476675000000     0.655082500000    -1.52755    
O5       O      0.304310000000     0.471665000000     0.650145000000    -1.37935    
C1       C      0.392557500000     0.413252500000     0.716545000000     0.791671   
C2       C      0.361390000000     0.433760000000     0.694492500000    -0.132716   
C3       C      0.386055000000     0.443020000000     0.681547500000    -0.356962   
C4       C      0.355327500000     0.464752500000     0.659900000000     1.24246    
H2       H      0.317580000000     0.441957500000     0.689235000000     0.0402646  
H3       H      0.430570000000     0.435532500000     0.687095000000     0.0988879  
H1       H      0.480737500000     0.381395000000     0.532665000000     0.34511    
O1       O      0.295030000000     0.495672500000     0.610037500000    -2.22479    
O2       O      0.311762500000     0.274962500000     0.653977500000    -1.17026    
O3       O      0.384610000000     0.282807500000     0.646095000000    -1.31066    
O4       O      0.362650000000     0.351675000000     0.719917500000    -1.52761    
O5       O      0.445690000000     0.346665000000     0.724855000000    -1.37964    
C1       C      0.357442500000     0.288252500000     0.658455000000     0.791732   
C2       C      0.388610000000     0.308760000000     0.680507500000    -0.132593   
C3       C      0.363945000000     0.318020000000     0.693452500000    -0.356998   
C4       C      0.394672500000     0.339752500000     0.715100000000     1.24262    
H2       H      0.432420000000     0.316957500000     0.685765000000     0.0403269  
H3       H      0.319430000000     0.310532500000     0.687905000000     0.0989164  
H1       H      0.269262500000     0.256395000000     0.592335000000     0.344975   
Al1      Al     0.375000000000     0.375000000000     0.750000000000     5.89263    
Al2      Al     0.250000000000     0.375000000000     0.750000000000     5.27341    
O1       O      0.295030000000     0.379327500000     0.985037500000    -2.09583    
O2       O      0.311762500000     0.350037500000     0.778977500000    -1.17014    
O3       O      0.384610000000     0.342192500000     0.771095000000    -1.31056    
O4       O      0.362650000000     0.273325000000     0.844917500000    -1.5283     
O5       O      0.445690000000     0.278335000000     0.849855000000    -1.38026    
C1       C      0.357442500000     0.336747500000     0.783455000000     0.791578   
C2       C      0.388610000000     0.316240000000     0.805507500000    -0.132475   
C3       C      0.363945000000     0.306980000000     0.818452500000    -0.357202   
C4       C      0.394672500000     0.285247500000     0.840100000000     1.24329    
H2       H      0.432420000000     0.308042500000     0.810765000000     0.0402607  
H3       H      0.319430000000     0.314467500000     0.812905000000     0.0989598  
H1       H      0.269262500000     0.368605000000     0.967335000000     0.333812   
Al1      Al     0.375000000000     0.250000000000     0.875000000000     5.8958     
Al2      Al     0.250000000000     0.250000000000     0.875000000000     5.27674    
O1       O      0.454970000000     0.254327500000     0.889962500000    -2.2258     
O2       O      0.438237500000     0.475037500000     0.846022500000    -1.17093    
O3       O      0.365390000000     0.467192500000     0.853905000000    -1.31111    
O4       O      0.387350000000     0.398325000000     0.780082500000    -1.52752    
O5       O      0.304310000000     0.403335000000     0.775145000000    -1.37936    
C1       C      0.392557500000     0.461747500000     0.841545000000     0.792019   
C2       C      0.361390000000     0.441240000000     0.819492500000    -0.132836   
C3       C      0.386055000000     0.431980000000     0.806547500000    -0.356906   
C4       C      0.355327500000     0.410247500000     0.784900000000     1.24242    
H2       H      0.317580000000     0.433042500000     0.814235000000     0.040301   
H3       H      0.430570000000     0.439467500000     0.812095000000     0.0988394  
H1       H      0.480737500000     0.493605000000     0.907665000000     0.347599   
O1       O      0.454970000000     0.370672500000     0.764962500000    -2.2251     
O2       O      0.438237500000     0.399962500000     0.971022500000    -1.10654    
O3       O      0.365390000000     0.407807500000     0.978905000000    -1.2366     
O4       O      0.387350000000     0.476675000000     0.905082500000    -1.52664    
O5       O      0.304310000000     0.471665000000     0.900145000000    -1.37948    
C1       C      0.392557500000     0.413252500000     0.966545000000     0.761755   
C2       C      0.361390000000     0.433760000000     0.944492500000    -0.117348   
C3       C      0.386055000000     0.443020000000     0.931547500000    -0.360745   
C4       C      0.355327500000     0.464752500000     0.909900000000     1.24585    
H2       H      0.317580000000     0.441957500000     0.939235000000     0.0399927  
H3       H      0.430570000000     0.435532500000     0.937095000000     0.103737   
H1       H      0.480737500000     0.381395000000     0.782665000000     0.345048   
O1       O      0.295030000000     0.495672500000     0.860037500000    -2.22583    
O2       O      0.311762500000     0.274962500000     0.903977500000    -1.16984    
O3       O      0.384610000000     0.282807500000     0.896095000000    -1.31064    
O4       O      0.362650000000     0.351675000000     0.969917500000    -1.44749    
O5       O      0.445690000000     0.346665000000     0.974855000000    -1.30279    
C1       C      0.357442500000     0.288252500000     0.908455000000     0.796337   
C2       C      0.388610000000     0.308760000000     0.930507500000    -0.14014    
C3       C      0.363945000000     0.318020000000     0.943452500000    -0.333629   
C4       C      0.394672500000     0.339752500000     0.965100000000     1.19292    
H2       H      0.432420000000     0.316957500000     0.935765000000     0.0469042  
H3       H      0.319430000000     0.310532500000     0.937905000000     0.0978354  
H1       H      0.269262500000     0.256395000000     0.842335000000     0.344933   
Al1      Al     0.375000000000     0.625000000000     0.000000000000     5.59412    
Al2      Al     0.250000000000     0.625000000000     0.000000000000     5.00166    
O1       O      0.295030000000     0.629327500000     0.235037500000    -2.22499    
O2       O      0.311762500000     0.600037500000     0.028977500000    -1.12835    
O3       O      0.384610000000     0.592192500000     0.021095000000    -1.26629    
O4       O      0.362650000000     0.523325000000     0.094917500000    -1.52931    
O5       O      0.445690000000     0.528335000000     0.099855000000    -1.38084    
C1       C      0.357442500000     0.586747500000     0.033455000000     0.760012   
C2       C      0.388610000000     0.566240000000     0.055507500000    -0.123531   
C3       C      0.363945000000     0.556980000000     0.068452500000    -0.363079   
C4       C      0.394672500000     0.535247500000     0.090100000000     1.24452    
H2       H      0.432420000000     0.558042500000     0.060765000000     0.0363216  
H3       H      0.319430000000     0.564467500000     0.062905000000     0.0993537  
H1       H      0.269262500000     0.618605000000     0.217335000000     0.345097   
Al1      Al     0.375000000000     0.500000000000     0.125000000000     5.89367    
Al2      Al     0.250000000000     0.500000000000     0.125000000000     5.27509    
O1       O      0.454970000000     0.504327500000     0.139962500000    -2.22532    
O2       O      0.438237500000     0.725037500000     0.096022500000    -1.17225    
O3       O      0.365390000000     0.717192500000     0.103905000000    -1.31154    
O4       O      0.387350000000     0.648325000000     0.030082500000    -1.47183    
O5       O      0.304310000000     0.653335000000     0.025145000000    -1.3328     
C1       C      0.392557500000     0.711747500000     0.091545000000     0.794152   
C2       C      0.361390000000     0.691240000000     0.069492500000    -0.14136    
C3       C      0.386055000000     0.681980000000     0.056547500000    -0.342769   
C4       C      0.355327500000     0.660247500000     0.034900000000     1.19408    
H2       H      0.317580000000     0.683042500000     0.064235000000     0.0420864  
H3       H      0.430570000000     0.689467500000     0.062095000000     0.0938403  
H1       H      0.480737500000     0.743605000000     0.157665000000     0.345153   
O1       O      0.454970000000     0.620672500000     0.014962500000    -2.1394     
O2       O      0.438237500000     0.649962500000     0.221022500000    -1.17036    
O3       O      0.365390000000     0.657807500000     0.228905000000    -1.31066    
O4       O      0.387350000000     0.726675000000     0.155082500000    -1.52743    
O5       O      0.304310000000     0.721665000000     0.150145000000    -1.3793     
C1       C      0.392557500000     0.663252500000     0.216545000000     0.791882   
C2       C      0.361390000000     0.683760000000     0.194492500000    -0.132529   
C3       C      0.386055000000     0.693020000000     0.181547500000    -0.356734   
C4       C      0.355327500000     0.714752500000     0.159900000000     1.2427     
H2       H      0.317580000000     0.691957500000     0.189235000000     0.0404663  
H3       H      0.430570000000     0.685532500000     0.187095000000     0.0991068  
H1       H      0.480737500000     0.631395000000     0.032665000000     0.336769   
O1       O      0.295030000000     0.745672500000     0.110037500000    -2.22493    
O2       O      0.311762500000     0.524962500000     0.153977500000    -1.17017    
O3       O      0.384610000000     0.532807500000     0.146095000000    -1.31039    
O4       O      0.362650000000     0.601675000000     0.219917500000    -1.52757    
O5       O      0.445690000000     0.596665000000     0.224855000000    -1.37963    
C1       C      0.357442500000     0.538252500000     0.158455000000     0.791942   
C2       C      0.388610000000     0.558760000000     0.180507500000    -0.132356   
C3       C      0.363945000000     0.568020000000     0.193452500000    -0.356813   
C4       C      0.394672500000     0.589752500000     0.215100000000     1.24286    
H2       H      0.432420000000     0.566957500000     0.185765000000     0.0405469  
H3       H      0.319430000000     0.560532500000     0.187905000000     0.0991351  
H1       H      0.269262500000     0.506395000000     0.092335000000     0.343649   
Al1      Al     0.375000000000     0.625000000000     0.250000000000     5.89345    
Al2      Al     0.250000000000     0.625000000000     0.250000000000     5.27422    
O1       O      0.295030000000     0.629327500000     0.485037500000    -2.22481    
O2       O      0.311762500000     0.600037500000     0.278977500000    -1.17021    
O3       O      0.384610000000     0.592192500000     0.271095000000    -1.3106     
O4       O      0.362650000000     0.523325000000     0.344917500000    -1.52766    
O5       O      0.445690000000     0.528335000000     0.349855000000    -1.3797     
C1       C      0.357442500000     0.586747500000     0.283455000000     0.79177    
C2       C      0.388610000000     0.566240000000     0.305507500000    -0.132522   
C3       C      0.363945000000     0.556980000000     0.318452500000    -0.356957   
C4       C      0.394672500000     0.535247500000     0.340100000000     1.24277    
H2       H      0.432420000000     0.558042500000     0.310765000000     0.0403895  
H3       H      0.319430000000     0.564467500000     0.312905000000     0.0989777  
H1       H      0.269262500000     0.618605000000     0.467335000000     0.344872   
Al1      Al     0.375000000000     0.500000000000     0.375000000000     5.89331    
Al2      Al     0.250000000000     0.500000000000     0.375000000000     5.27408    
O1       O      0.454970000000     0.504327500000     0.389962500000    -2.22528    
O2       O      0.438237500000     0.725037500000     0.346022500000    -1.1704     
O3       O      0.365390000000     0.717192500000     0.353905000000    -1.31063    
O4       O      0.387350000000     0.648325000000     0.280082500000    -1.52762    
O5       O      0.304310000000     0.653335000000     0.275145000000    -1.37943    
C1       C      0.392557500000     0.711747500000     0.341545000000     0.791707   
C2       C      0.361390000000     0.691240000000     0.319492500000    -0.132646   
C3       C      0.386055000000     0.681980000000     0.306547500000    -0.356934   
C4       C      0.355327500000     0.660247500000     0.284900000000     1.24263    
H2       H      0.317580000000     0.683042500000     0.314235000000     0.0403234  
H3       H      0.430570000000     0.689467500000     0.312095000000     0.0989451  
H1       H      0.480737500000     0.743605000000     0.407665000000     0.345002   
O1       O      0.454970000000     0.620672500000     0.264962500000    -2.22531    
O2       O      0.438237500000     0.649962500000     0.471022500000    -1.17042    
O3       O      0.365390000000     0.657807500000     0.478905000000    -1.31068    
O4       O      0.387350000000     0.726675000000     0.405082500000    -1.52755    
O5       O      0.304310000000     0.721665000000     0.400145000000    -1.37935    
C1       C      0.392557500000     0.663252500000     0.466545000000     0.79168    
C2       C      0.361390000000     0.683760000000     0.444492500000    -0.132714   
C3       C      0.386055000000     0.693020000000     0.431547500000    -0.356963   
C4       C      0.355327500000     0.714752500000     0.409900000000     1.24246    
H2       H      0.317580000000     0.691957500000     0.439235000000     0.0402651  
H3       H      0.430570000000     0.685532500000     0.437095000000     0.0988895  
H1       H      0.480737500000     0.631395000000     0.282665000000     0.345114   
O1       O      0.295030000000     0.745672500000     0.360037500000    -2.22479    
O2       O      0.311762500000     0.524962500000     0.403977500000    -1.17023    
O3       O      0.384610000000     0.532807500000     0.396095000000    -1.31063    
O4       O      0.362650000000     0.601675000000     0.469917500000    -1.52761    
O5       O      0.445690000000     0.596665000000     0.474855000000    -1.37964    
C1       C      0.357442500000     0.538252500000     0.408455000000     0.791717   
C2       C      0.388610000000     0.558760000000     0.430507500000    -0.132583   
C3       C      0.363945000000     0.568020000000     0.443452500000    -0.356995   
C4       C      0.394672500000     0.589752500000     0.465100000000     1.24264    
H2       H      0.432420000000     0.566957500000     0.435765000000     0.0403302  
H3       H      0.319430000000     0.560532500000     0.437905000000     0.0989228  
H1       H      0.269262500000     0.506395000000     0.342335000000     0.344971   
Al1      Al     0.375000000000     0.625000000000     0.500000000000     5.89267    
Al2      Al     0.250000000000     0.625000000000     0.500000000000     5.27345    
O1       O      0.295030000000     0.629327500000     0.735037500000    -2.22466    
O2       O      0.311762500000     0.600037500000     0.528977500000    -1.17019    
O3       O      0.384610000000     0.592192500000     0.521095000000    -1.31058    
O4       O      0.362650000000     0.523325000000     0.594917500000    -1.52763    
O5       O      0.445690000000     0.528335000000     0.599855000000    -1.37968    
C1       C      0.357442500000     0.586747500000     0.533455000000     0.791609   
C2       C      0.388610000000     0.566240000000     0.555507500000    -0.132619   
C3       C      0.363945000000     0.556980000000     0.568452500000    -0.357054   
C4       C      0.394672500000     0.535247500000     0.590100000000     1.24261    
H2       H      0.432420000000     0.558042500000     0.560765000000     0.0402831  
H3       H      0.319430000000     0.564467500000     0.562905000000     0.0988698  
H1       H      0.269262500000     0.618605000000     0.717335000000     0.344758   
Al1      Al     0.375000000000     0.500000000000     0.625000000000     5.89267    
Al2      Al     0.250000000000     0.500000000000     0.625000000000     5.27345    
O1       O      0.454970000000     0.504327500000     0.639962500000    -2.22513    
O2       O      0.438237500000     0.725037500000     0.596022500000    -1.1704     
O3       O      0.365390000000     0.717192500000     0.603905000000    -1.31063    
O4       O      0.387350000000     0.648325000000     0.530082500000    -1.52757    
O5       O      0.304310000000     0.653335000000     0.525145000000    -1.37939    
C1       C      0.392557500000     0.711747500000     0.591545000000     0.791567   
C2       C      0.361390000000     0.691240000000     0.569492500000    -0.132753   
C3       C      0.386055000000     0.681980000000     0.556547500000    -0.35702    
C4       C      0.355327500000     0.660247500000     0.534900000000     1.24244    
H2       H      0.317580000000     0.683042500000     0.564235000000     0.0402203  
H3       H      0.430570000000     0.689467500000     0.562095000000     0.0988349  
H1       H      0.480737500000     0.743605000000     0.657665000000     0.344888   
O1       O      0.454970000000     0.620672500000     0.514962500000    -2.22511    
O2       O      0.438237500000     0.649962500000     0.721022500000    -1.17042    
O3       O      0.365390000000     0.657807500000     0.728905000000    -1.31069    
O4       O      0.387350000000     0.726675000000     0.655082500000    -1.52753    
O5       O      0.304310000000     0.721665000000     0.650145000000    -1.37934    
C1       C      0.392557500000     0.663252500000     0.716545000000     0.791527   
C2       C      0.361390000000     0.683760000000     0.694492500000    -0.132822   
C3       C      0.386055000000     0.693020000000     0.681547500000    -0.357061   
C4       C      0.355327500000     0.714752500000     0.659900000000     1.24229    
H2       H      0.317580000000     0.691957500000     0.689235000000     0.040154   
H3       H      0.430570000000     0.685532500000     0.687095000000     0.0987765  
H1       H      0.480737500000     0.631395000000     0.532665000000     0.345002   
O1       O      0.295030000000     0.745672500000     0.610037500000    -2.22464    
O2       O      0.311762500000     0.524962500000     0.653977500000    -1.17023    
O3       O      0.384610000000     0.532807500000     0.646095000000    -1.31063    
O4       O      0.362650000000     0.601675000000     0.719917500000    -1.52758    
O5       O      0.445690000000     0.596665000000     0.724855000000    -1.37963    
C1       C      0.357442500000     0.538252500000     0.658455000000     0.791574   
C2       C      0.388610000000     0.558760000000     0.680507500000    -0.132689   
C3       C      0.363945000000     0.568020000000     0.693452500000    -0.357094   
C4       C      0.394672500000     0.589752500000     0.715100000000     1.24246    
H2       H      0.432420000000     0.566957500000     0.685765000000     0.0402213  
H3       H      0.319430000000     0.560532500000     0.687905000000     0.0988085  
H1       H      0.269262500000     0.506395000000     0.592335000000     0.344859   
Al1      Al     0.375000000000     0.625000000000     0.750000000000     5.89199    
Al2      Al     0.250000000000     0.625000000000     0.750000000000     5.27278    
O1       O      0.295030000000     0.629327500000     0.985037500000    -2.09568    
O2       O      0.311762500000     0.600037500000     0.778977500000    -1.17014    
O3       O      0.384610000000     0.592192500000     0.771095000000    -1.31056    
O4       O      0.362650000000     0.523325000000     0.844917500000    -1.52825    
O5       O      0.445690000000     0.528335000000     0.849855000000    -1.38021    
C1       C      0.357442500000     0.586747500000     0.783455000000     0.791438   
C2       C      0.388610000000     0.566240000000     0.805507500000    -0.132581   
C3       C      0.363945000000     0.556980000000     0.818452500000    -0.357287   
C4       C      0.394672500000     0.535247500000     0.840100000000     1.2431     
H2       H      0.432420000000     0.558042500000     0.810765000000     0.0401565  
H3       H      0.319430000000     0.564467500000     0.812905000000     0.0988501  
H1       H      0.269262500000     0.618605000000     0.967335000000     0.333705   
Al1      Al     0.375000000000     0.500000000000     0.875000000000     5.89503    
Al2      Al     0.250000000000     0.500000000000     0.875000000000     5.27594    
O1       O      0.454970000000     0.504327500000     0.889962500000    -2.22561    
O2       O      0.438237500000     0.725037500000     0.846022500000    -1.17094    
O3       O      0.365390000000     0.717192500000     0.853905000000    -1.31111    
O4       O      0.387350000000     0.648325000000     0.780082500000    -1.52749    
O5       O      0.304310000000     0.653335000000     0.775145000000    -1.37935    
C1       C      0.392557500000     0.711747500000     0.841545000000     0.79187    
C2       C      0.361390000000     0.691240000000     0.819492500000    -0.132944   
C3       C      0.386055000000     0.681980000000     0.806547500000    -0.357004   
C4       C      0.355327500000     0.660247500000     0.784900000000     1.24225    
H2       H      0.317580000000     0.683042500000     0.814235000000     0.0401935  
H3       H      0.430570000000     0.689467500000     0.812095000000     0.098726   
H1       H      0.480737500000     0.743605000000     0.907665000000     0.347476   
O1       O      0.454970000000     0.620672500000     0.764962500000    -2.22496    
O2       O      0.438237500000     0.649962500000     0.971022500000    -1.10654    
O3       O      0.365390000000     0.657807500000     0.978905000000    -1.23661    
O4       O      0.387350000000     0.726675000000     0.905082500000    -1.52662    
O5       O      0.304310000000     0.721665000000     0.900145000000    -1.37947    
C1       C      0.392557500000     0.663252500000     0.966545000000     0.761609   
C2       C      0.361390000000     0.683760000000     0.944492500000    -0.117454   
C3       C      0.386055000000     0.693020000000     0.931547500000    -0.360846   
C4       C      0.355327500000     0.714752500000     0.909900000000     1.24568    
H2       H      0.317580000000     0.691957500000     0.939235000000     0.0398815  
H3       H      0.430570000000     0.685532500000     0.937095000000     0.103625   
H1       H      0.480737500000     0.631395000000     0.782665000000     0.344941   
O1       O      0.295030000000     0.745672500000     0.860037500000    -2.22567    
O2       O      0.311762500000     0.524962500000     0.903977500000    -1.16981    
O3       O      0.384610000000     0.532807500000     0.896095000000    -1.31061    
O4       O      0.362650000000     0.601675000000     0.969917500000    -1.44746    
O5       O      0.445690000000     0.596665000000     0.974855000000    -1.30277    
C1       C      0.357442500000     0.538252500000     0.908455000000     0.796179   
C2       C      0.388610000000     0.558760000000     0.930507500000    -0.140237   
C3       C      0.363945000000     0.568020000000     0.943452500000    -0.333724   
C4       C      0.394672500000     0.589752500000     0.965100000000     1.19276    
H2       H      0.432420000000     0.566957500000     0.935765000000     0.0467991  
H3       H      0.319430000000     0.560532500000     0.937905000000     0.0977278  
H1       H      0.269262500000     0.506395000000     0.842335000000     0.344817   
Al1      Al     0.375000000000     0.875000000000     0.000000000000     5.59631    
Al2      Al     0.250000000000     0.875000000000     0.000000000000     5.00487    
O1       O      0.295030000000     0.879327500000     0.235037500000    -2.22522    
O2       O      0.311762500000     0.850037500000     0.028977500000    -1.12906    
O3       O      0.384610000000     0.842192500000     0.021095000000    -1.26685    
O4       O      0.362650000000     0.773325000000     0.094917500000    -1.52927    
O5       O      0.445690000000     0.778335000000     0.099855000000    -1.38078    
C1       C      0.357442500000     0.836747500000     0.033455000000     0.760228   
C2       C      0.388610000000     0.816240000000     0.055507500000    -0.12372    
C3       C      0.363945000000     0.806980000000     0.068452500000    -0.363069   
C4       C      0.394672500000     0.785247500000     0.090100000000     1.24435    
H2       H      0.432420000000     0.808042500000     0.060765000000     0.0362785  
H3       H      0.319430000000     0.814467500000     0.062905000000     0.0992724  
H1       H      0.269262500000     0.868605000000     0.217335000000     0.34524    
Al1      Al     0.375000000000     0.750000000000     0.125000000000     5.893      
Al2      Al     0.250000000000     0.750000000000     0.125000000000     5.27445    
O1       O      0.454970000000     0.754327500000     0.139962500000    -2.22515    
O2       O      0.438237500000     0.975037500000     0.096022500000    -1.10548    
O3       O      0.365390000000     0.967192500000     0.103905000000    -1.24505    
O4       O      0.387350000000     0.898325000000     0.030082500000    -1.47201    
O5       O      0.304310000000     0.903335000000     0.025145000000    -1.33253    
C1       C      0.392557500000     0.961747500000     0.091545000000     0.765195   
C2       C      0.361390000000     0.941240000000     0.069492500000    -0.125989   
C3       C      0.386055000000     0.931980000000     0.056547500000    -0.346551   
C4       C      0.355327500000     0.910247500000     0.034900000000     1.19806    
H2       H      0.317580000000     0.933042500000     0.064235000000     0.0411662  
H3       H      0.430570000000     0.939467500000     0.062095000000     0.0991647  
H1       H      0.480737500000     0.993605000000     0.157665000000     0.371031   
O1       O      0.454970000000     0.870672500000     0.014962500000    -2.14035    
O2       O      0.438237500000     0.899962500000     0.221022500000    -1.17075    
O3       O      0.365390000000     0.907807500000     0.228905000000    -1.30961    
O4       O      0.387350000000     0.976675000000     0.155082500000    -1.44884    
O5       O      0.304310000000     0.971665000000     0.150145000000    -1.31041    
C1       C      0.392557500000     0.913252500000     0.216545000000     0.796934   
C2       C      0.361390000000     0.933760000000     0.194492500000    -0.139893   
C3       C      0.386055000000     0.943020000000     0.181547500000    -0.33426    
C4       C      0.355327500000     0.964752500000     0.159900000000     1.19205    
H2       H      0.317580000000     0.941957500000     0.189235000000     0.047091   
H3       H      0.430570000000     0.935532500000     0.187095000000     0.0968469  
H1       H      0.480737500000     0.881395000000     0.032665000000     0.337474   
O1       O      0.295030000000     0.995672500000     0.110037500000    -2.07642    
O2       O      0.311762500000     0.774962500000     0.153977500000    -1.17015    
O3       O      0.384610000000     0.782807500000     0.146095000000    -1.31033    
O4       O      0.362650000000     0.851675000000     0.219917500000    -1.52812    
O5       O      0.445690000000     0.846665000000     0.224855000000    -1.38034    
C1       C      0.357442500000     0.788252500000     0.158455000000     0.791801   
C2       C      0.388610000000     0.808760000000     0.180507500000    -0.132326   
C3       C      0.363945000000     0.818020000000     0.193452500000    -0.357034   
C4       C      0.394672500000     0.839752500000     0.215100000000     1.24322    
H2       H      0.432420000000     0.816957500000     0.185765000000     0.0404822  
H3       H      0.319430000000     0.810532500000     0.187905000000     0.0991059  
H1       H      0.269262500000     0.756395000000     0.092335000000     0.343539   
Al1      Al     0.375000000000     0.875000000000     0.250000000000     5.89548    
Al2      Al     0.250000000000     0.875000000000     0.250000000000     5.27728    
O1       O      0.295030000000     0.879327500000     0.485037500000    -2.22504    
O2       O      0.311762500000     0.850037500000     0.278977500000    -1.17089    
O3       O      0.384610000000     0.842192500000     0.271095000000    -1.31114    
O4       O      0.362650000000     0.773325000000     0.344917500000    -1.52761    
O5       O      0.445690000000     0.778335000000     0.349855000000    -1.37964    
C1       C      0.357442500000     0.836747500000     0.283455000000     0.791971   
C2       C      0.388610000000     0.816240000000     0.305507500000    -0.132706   
C3       C      0.363945000000     0.806980000000     0.318452500000    -0.356949   
C4       C      0.394672500000     0.785247500000     0.340100000000     1.24261    
H2       H      0.432420000000     0.808042500000     0.310765000000     0.0403448  
H3       H      0.319430000000     0.814467500000     0.312905000000     0.0988972  
H1       H      0.269262500000     0.868605000000     0.467335000000     0.345016   
Al1      Al     0.375000000000     0.750000000000     0.375000000000     5.89263    
Al2      Al     0.250000000000     0.750000000000     0.375000000000     5.27344    
O1       O      0.454970000000     0.754327500000     0.389962500000    -2.22511    
O2       O      0.438237500000     0.975037500000     0.346022500000    -1.10359    
O3       O      0.365390000000     0.967192500000     0.353905000000    -1.2441     
O4       O      0.387350000000     0.898325000000     0.280082500000    -1.52778    
O5       O      0.304310000000     0.903335000000     0.275145000000    -1.37914    
C1       C      0.392557500000     0.961747500000     0.341545000000     0.762731   
C2       C      0.361390000000     0.941240000000     0.319492500000    -0.117269   
C3       C      0.386055000000     0.931980000000     0.306547500000    -0.360711   
C4       C      0.355327500000     0.910247500000     0.284900000000     1.24659    
H2       H      0.317580000000     0.933042500000     0.314235000000     0.0394031  
H3       H      0.430570000000     0.939467500000     0.312095000000     0.10427    
H1       H      0.480737500000     0.993605000000     0.407665000000     0.370891   
O1       O      0.454970000000     0.870672500000     0.264962500000    -2.22621    
O2       O      0.438237500000     0.899962500000     0.471022500000    -1.17081    
O3       O      0.365390000000     0.907807500000     0.478905000000    -1.30964    
O4       O      0.387350000000     0.976675000000     0.405082500000    -1.4489     
O5       O      0.304310000000     0.971665000000     0.400145000000    -1.31042    
C1       C      0.392557500000     0.913252500000     0.466545000000     0.796734   
C2       C      0.361390000000     0.933760000000     0.444492500000    -0.140084   
C3       C      0.386055000000     0.943020000000     0.431547500000    -0.334475   
C4       C      0.355327500000     0.964752500000     0.409900000000     1.19178    
H2       H      0.317580000000     0.941957500000     0.439235000000     0.0468931  
H3       H      0.430570000000     0.935532500000     0.437095000000     0.0966277  
H1       H      0.480737500000     0.881395000000     0.282665000000     0.345815   
O1       O      0.295030000000     0.995672500000     0.360037500000    -2.07618    
O2       O      0.311762500000     0.774962500000     0.403977500000    -1.1702     
O3       O      0.384610000000     0.782807500000     0.396095000000    -1.31057    
O4       O      0.362650000000     0.851675000000     0.469917500000    -1.52816    
O5       O      0.445690000000     0.846665000000     0.474855000000    -1.38035    
C1       C      0.357442500000     0.788252500000     0.408455000000     0.791577   
C2       C      0.388610000000     0.808760000000     0.430507500000    -0.132553   
C3       C      0.363945000000     0.818020000000     0.443452500000    -0.357216   
C4       C      0.394672500000     0.839752500000     0.465100000000     1.243      
H2       H      0.432420000000     0.816957500000     0.435765000000     0.0402657  
H3       H      0.319430000000     0.810532500000     0.437905000000     0.0988937  
H1       H      0.269262500000     0.756395000000     0.342335000000     0.34486    
Al1      Al     0.375000000000     0.875000000000     0.500000000000     5.89471    
Al2      Al     0.250000000000     0.875000000000     0.500000000000     5.27651    
O1       O      0.295030000000     0.879327500000     0.735037500000    -2.22489    
O2       O      0.311762500000     0.850037500000     0.528977500000    -1.17087    
O3       O      0.384610000000     0.842192500000     0.521095000000    -1.31112    
O4       O      0.362650000000     0.773325000000     0.594917500000    -1.52759    
O5       O      0.445690000000     0.778335000000     0.599855000000    -1.37962    
C1       C      0.357442500000     0.836747500000     0.533455000000     0.791809   
C2       C      0.388610000000     0.816240000000     0.555507500000    -0.132802   
C3       C      0.363945000000     0.806980000000     0.568452500000    -0.357046   
C4       C      0.394672500000     0.785247500000     0.590100000000     1.24245    
H2       H      0.432420000000     0.808042500000     0.560765000000     0.0402385  
H3       H      0.319430000000     0.814467500000     0.562905000000     0.0987893  
H1       H      0.269262500000     0.868605000000     0.717335000000     0.344902   
Al1      Al     0.375000000000     0.750000000000     0.625000000000     5.89199    
Al2      Al     0.250000000000     0.750000000000     0.625000000000     5.27282    
O1       O      0.454970000000     0.754327500000     0.639962500000    -2.22496    
O2       O      0.438237500000     0.975037500000     0.596022500000    -1.10358    
O3       O      0.365390000000     0.967192500000     0.603905000000    -1.2441     
O4       O      0.387350000000     0.898325000000     0.530082500000    -1.52772    
O5       O      0.304310000000     0.903335000000     0.525145000000    -1.3791     
C1       C      0.392557500000     0.961747500000     0.591545000000     0.76259    
C2       C      0.361390000000     0.941240000000     0.569492500000    -0.117375   
C3       C      0.386055000000     0.931980000000     0.556547500000    -0.360796   
C4       C      0.355327500000     0.910247500000     0.534900000000     1.2464     
H2       H      0.317580000000     0.933042500000     0.564235000000     0.0393002  
H3       H      0.430570000000     0.939467500000     0.562095000000     0.10416    
H1       H      0.480737500000     0.993605000000     0.657665000000     0.370774   
O1       O      0.454970000000     0.870672500000     0.514962500000    -2.22601    
O2       O      0.438237500000     0.899962500000     0.721022500000    -1.17081    
O3       O      0.365390000000     0.907807500000     0.728905000000    -1.30965    
O4       O      0.387350000000     0.976675000000     0.655082500000    -1.44888    
O5       O      0.304310000000     0.971665000000     0.650145000000    -1.3104     
C1       C      0.392557500000     0.913252500000     0.716545000000     0.79658    
C2       C      0.361390000000     0.933760000000     0.694492500000    -0.140192   
C3       C      0.386055000000     0.943020000000     0.681547500000    -0.334574   
C4       C      0.355327500000     0.964752500000     0.659900000000     1.19161    
H2       H      0.317580000000     0.941957500000     0.689235000000     0.0467815  
H3       H      0.430570000000     0.935532500000     0.687095000000     0.0965142  
H1       H      0.480737500000     0.881395000000     0.532665000000     0.345703   
O1       O      0.295030000000     0.995672500000     0.610037500000    -2.07602    
O2       O      0.311762500000     0.774962500000     0.653977500000    -1.17021    
O3       O      0.384610000000     0.782807500000     0.646095000000    -1.31058    
O4       O      0.362650000000     0.851675000000     0.719917500000    -1.52813    
O5       O      0.445690000000     0.846665000000     0.724855000000    -1.38033    
C1       C      0.357442500000     0.788252500000     0.658455000000     0.791433   
C2       C      0.388610000000     0.808760000000     0.680507500000    -0.132659   
C3       C      0.363945000000     0.818020000000     0.693452500000    -0.357315   
C4       C      0.394672500000     0.839752500000     0.715100000000     1.24282    
H2       H      0.432420000000     0.816957500000     0.685765000000     0.0401568  
H3       H      0.319430000000     0.810532500000     0.687905000000     0.0987795  
H1       H      0.269262500000     0.756395000000     0.592335000000     0.344748   
Al1      Al     0.375000000000     0.875000000000     0.750000000000     5.89403    
Al2      Al     0.250000000000     0.875000000000     0.750000000000     5.27584    
O1       O      0.295030000000     0.879327500000     0.985037500000    -2.09599    
O2       O      0.311762500000     0.850037500000     0.778977500000    -1.17082    
O3       O      0.384610000000     0.842192500000     0.771095000000    -1.3111     
O4       O      0.362650000000     0.773325000000     0.844917500000    -1.5282     
O5       O      0.445690000000     0.778335000000     0.849855000000    -1.38015    
C1       C      0.357442500000     0.836747500000     0.783455000000     0.791638   
C2       C      0.388610000000     0.816240000000     0.805507500000    -0.132764   
C3       C      0.363945000000     0.806980000000     0.818452500000    -0.357279   
C4       C      0.394672500000     0.785247500000     0.840100000000     1.24294    
H2       H      0.432420000000     0.808042500000     0.810765000000     0.040112   
H3       H      0.319430000000     0.814467500000     0.812905000000     0.0987697  
H1       H      0.269262500000     0.868605000000     0.967335000000     0.333856   
Al1      Al     0.375000000000     0.750000000000     0.875000000000     5.89435    
Al2      Al     0.250000000000     0.750000000000     0.875000000000     5.27531    
O1       O      0.454970000000     0.754327500000     0.889962500000    -2.22544    
O2       O      0.438237500000     0.975037500000     0.846022500000    -1.10416    
O3       O      0.365390000000     0.967192500000     0.853905000000    -1.24462    
O4       O      0.387350000000     0.898325000000     0.780082500000    -1.52765    
O5       O      0.304310000000     0.903335000000     0.775145000000    -1.37906    
C1       C      0.392557500000     0.961747500000     0.841545000000     0.762908   
C2       C      0.361390000000     0.941240000000     0.819492500000    -0.117574   
C3       C      0.386055000000     0.931980000000     0.806547500000    -0.360778   
C4       C      0.355327500000     0.910247500000     0.784900000000     1.24621    
H2       H      0.317580000000     0.933042500000     0.814235000000     0.0392742  
H3       H      0.430570000000     0.939467500000     0.812095000000     0.104049   
H1       H      0.480737500000     0.993605000000     0.907665000000     0.373339   
O1       O      0.454970000000     0.870672500000     0.764962500000    -2.22586    
O2       O      0.438237500000     0.899962500000     0.971022500000    -1.10697    
O3       O      0.365390000000     0.907807500000     0.978905000000    -1.23561    
O4       O      0.387350000000     0.976675000000     0.905082500000    -1.44802    
O5       O      0.304310000000     0.971665000000     0.900145000000    -1.31058    
C1       C      0.392557500000     0.913252500000     0.966545000000     0.766674   
C2       C      0.361390000000     0.933760000000     0.944492500000    -0.12483    
C3       C      0.386055000000     0.943020000000     0.931547500000    -0.33837    
C4       C      0.355327500000     0.964752500000     0.909900000000     1.19502    
H2       H      0.317580000000     0.941957500000     0.939235000000     0.0465036  
H3       H      0.430570000000     0.935532500000     0.937095000000     0.10136    
H1       H      0.480737500000     0.881395000000     0.782665000000     0.345641   
O1       O      0.295030000000     0.995672500000     0.860037500000    -2.07714    
O2       O      0.311762500000     0.774962500000     0.903977500000    -1.16979    
O3       O      0.384610000000     0.782807500000     0.896095000000    -1.31055    
O4       O      0.362650000000     0.851675000000     0.969917500000    -1.44806    
O5       O      0.445690000000     0.846665000000     0.974855000000    -1.30352    
C1       C      0.357442500000     0.788252500000     0.908455000000     0.796036   
C2       C      0.388610000000     0.808760000000     0.930507500000    -0.140202   
C3       C      0.363945000000     0.818020000000     0.943452500000    -0.333957   
C4       C      0.394672500000     0.839752500000     0.965100000000     1.19315    
H2       H      0.432420000000     0.816957500000     0.935765000000     0.0467316  
H3       H      0.319430000000     0.810532500000     0.937905000000     0.0976997  
H1       H      0.269262500000     0.756395000000     0.842335000000     0.344706   
Al1      Al     0.625000000000     0.125000000000     0.000000000000     5.59563    
Al2      Al     0.500000000000     0.125000000000     0.000000000000     5.00341    
O1       O      0.545030000000     0.129327500000     0.235037500000    -2.2256     
O2       O      0.561762500000     0.100037500000     0.028977500000    -1.12957    
O3       O      0.634610000000     0.092192500000     0.021095000000    -1.26799    
O4       O      0.612650000000     0.023325000000     0.094917500000    -1.4769     
O5       O      0.695690000000     0.028335000000     0.099855000000    -1.33073    
C1       C      0.607442500000     0.086747500000     0.033455000000     0.762071   
C2       C      0.638610000000     0.066240000000     0.055507500000    -0.131783   
C3       C      0.613945000000     0.056980000000     0.068452500000    -0.349265   
C4       C      0.644672500000     0.035247500000     0.090100000000     1.20052    
H2       H      0.682420000000     0.058042500000     0.060765000000     0.0380465  
H3       H      0.569430000000     0.064467500000     0.062905000000     0.0956882  
H1       H      0.519262500000     0.118605000000     0.217335000000     0.345414   
Al1      Al     0.625000000000     0.000000000000     0.125000000000     5.60622    
Al2      Al     0.500000000000     0.000000000000     0.125000000000     5.01395    
O1       O      0.704970000000     0.004327500000     0.139962500000    -2.16697    
O2       O      0.688237500000     0.225037500000     0.096022500000    -1.17215    
O3       O      0.615390000000     0.217192500000     0.103905000000    -1.31145    
O4       O      0.637350000000     0.148325000000     0.030082500000    -1.47161    
O5       O      0.554310000000     0.153335000000     0.025145000000    -1.33284    
C1       C      0.642557500000     0.211747500000     0.091545000000     0.794548   
C2       C      0.611390000000     0.191240000000     0.069492500000    -0.141026   
C3       C      0.636055000000     0.181980000000     0.056547500000    -0.342418   
C4       C      0.605327500000     0.160247500000     0.034900000000     1.19452    
H2       H      0.567580000000     0.183042500000     0.064235000000     0.0424478  
H3       H      0.680570000000     0.189467500000     0.062095000000     0.0942881  
H1       H      0.730737500000     0.243605000000     0.157665000000     0.345753   
O1       O      0.704970000000     0.120672500000     0.014962500000    -2.14007    
O2       O      0.688237500000     0.149962500000     0.221022500000    -1.17004    
O3       O      0.615390000000     0.157807500000     0.228905000000    -1.31051    
O4       O      0.637350000000     0.226675000000     0.155082500000    -1.52744    
O5       O      0.554310000000     0.221665000000     0.150145000000    -1.37959    
C1       C      0.642557500000     0.163252500000     0.216545000000     0.79223    
C2       C      0.611390000000     0.183760000000     0.194492500000    -0.132114   
C3       C      0.636055000000     0.193020000000     0.181547500000    -0.356475   
C4       C      0.605327500000     0.214752500000     0.159900000000     1.24326    
H2       H      0.567580000000     0.191957500000     0.189235000000     0.0407656  
H3       H      0.680570000000     0.185532500000     0.187095000000     0.0995984  
H1       H      0.730737500000     0.131395000000     0.032665000000     0.337605   
O1       O      0.545030000000     0.245672500000     0.110037500000    -2.22558    
O2       O      0.561762500000     0.024962500000     0.153977500000    -1.13514    
O3       O      0.634610000000     0.032807500000     0.146095000000    -1.26315    
O4       O      0.612650000000     0.101675000000     0.219917500000    -1.52836    
O5       O      0.695690000000     0.096665000000     0.224855000000    -1.38096    
C1       C      0.607442500000     0.038252500000     0.158455000000     0.761597   
C2       C      0.638610000000     0.058760000000     0.180507500000    -0.124178   
C3       C      0.613945000000     0.068020000000     0.193452500000    -0.362496   
C4       C      0.644672500000     0.089752500000     0.215100000000     1.24412    
H2       H      0.682420000000     0.066957500000     0.185765000000     0.0373963  
H3       H      0.569430000000     0.060532500000     0.187905000000     0.0989949  
H1       H      0.519262500000     0.006395000000     0.092335000000     0.299719   
Al1      Al     0.625000000000     0.125000000000     0.250000000000     5.89471    
Al2      Al     0.500000000000     0.125000000000     0.250000000000     5.27666    
O1       O      0.545030000000     0.129327500000     0.485037500000    -2.22542    
O2       O      0.561762500000     0.100037500000     0.278977500000    -1.17151    
O3       O      0.634610000000     0.092192500000     0.271095000000    -1.31229    
O4       O      0.612650000000     0.023325000000     0.344917500000    -1.4752     
O5       O      0.695690000000     0.028335000000     0.349855000000    -1.32954    
C1       C      0.607442500000     0.086747500000     0.283455000000     0.793871   
C2       C      0.638610000000     0.066240000000     0.305507500000    -0.14079    
C3       C      0.613945000000     0.056980000000     0.318452500000    -0.343118   
C4       C      0.644672500000     0.035247500000     0.340100000000     1.19873    
H2       H      0.682420000000     0.058042500000     0.310765000000     0.0421223  
H3       H      0.569430000000     0.064467500000     0.312905000000     0.0953159  
H1       H      0.519262500000     0.118605000000     0.467335000000     0.345194   
Al1      Al     0.625000000000     0.000000000000     0.375000000000     5.60566    
Al2      Al     0.500000000000     0.000000000000     0.375000000000     5.01279    
O1       O      0.704970000000     0.004327500000     0.389962500000    -2.16688    
O2       O      0.688237500000     0.225037500000     0.346022500000    -1.17029    
O3       O      0.615390000000     0.217192500000     0.353905000000    -1.31053    
O4       O      0.637350000000     0.148325000000     0.280082500000    -1.52739    
O5       O      0.554310000000     0.153335000000     0.275145000000    -1.37956    
C1       C      0.642557500000     0.211747500000     0.341545000000     0.792102   
C2       C      0.611390000000     0.191240000000     0.319492500000    -0.132295   
C3       C      0.636055000000     0.181980000000     0.306547500000    -0.35659    
C4       C      0.605327500000     0.160247500000     0.284900000000     1.24311    
H2       H      0.567580000000     0.183042500000     0.314235000000     0.0406893  
H3       H      0.680570000000     0.189467500000     0.312095000000     0.0994018  
H1       H      0.730737500000     0.243605000000     0.407665000000     0.345603   
O1       O      0.704970000000     0.120672500000     0.264962500000    -2.22575    
O2       O      0.688237500000     0.149962500000     0.471022500000    -1.17009    
O3       O      0.615390000000     0.157807500000     0.478905000000    -1.31053    
O4       O      0.637350000000     0.226675000000     0.405082500000    -1.52756    
O5       O      0.554310000000     0.221665000000     0.400145000000    -1.37965    
C1       C      0.642557500000     0.163252500000     0.466545000000     0.792027   
C2       C      0.611390000000     0.183760000000     0.444492500000    -0.132298   
C3       C      0.636055000000     0.193020000000     0.431547500000    -0.356707   
C4       C      0.605327500000     0.214752500000     0.409900000000     1.24302    
H2       H      0.567580000000     0.191957500000     0.439235000000     0.0405644  
H3       H      0.680570000000     0.185532500000     0.437095000000     0.0993818  
H1       H      0.730737500000     0.131395000000     0.282665000000     0.345947   
O1       O      0.545030000000     0.245672500000     0.360037500000    -2.22545    
O2       O      0.561762500000     0.024962500000     0.403977500000    -1.13518    
O3       O      0.634610000000     0.032807500000     0.396095000000    -1.26336    
O4       O      0.612650000000     0.101675000000     0.469917500000    -1.52839    
O5       O      0.695690000000     0.096665000000     0.474855000000    -1.38097    
C1       C      0.607442500000     0.038252500000     0.408455000000     0.761354   
C2       C      0.638610000000     0.058760000000     0.430507500000    -0.1244     
C3       C      0.613945000000     0.068020000000     0.443452500000    -0.36268    
C4       C      0.644672500000     0.089752500000     0.465100000000     1.2439     
H2       H      0.682420000000     0.066957500000     0.435765000000     0.0371785  
H3       H      0.569430000000     0.060532500000     0.437905000000     0.0987837  
H1       H      0.519262500000     0.006395000000     0.342335000000     0.301024   
Al1      Al     0.625000000000     0.125000000000     0.500000000000     5.89394    
Al2      Al     0.500000000000     0.125000000000     0.500000000000     5.27591    
O1       O      0.545030000000     0.129327500000     0.735037500000    -2.22527    
O2       O      0.561762500000     0.100037500000     0.528977500000    -1.17149    
O3       O      0.634610000000     0.092192500000     0.521095000000    -1.31227    
O4       O      0.612650000000     0.023325000000     0.594917500000    -1.47517    
O5       O      0.695690000000     0.028335000000     0.599855000000    -1.32952    
C1       C      0.607442500000     0.086747500000     0.533455000000     0.79371    
C2       C      0.638610000000     0.066240000000     0.555507500000    -0.140889   
C3       C      0.613945000000     0.056980000000     0.568452500000    -0.343214   
C4       C      0.644672500000     0.035247500000     0.590100000000     1.19857    
H2       H      0.682420000000     0.058042500000     0.560765000000     0.0420148  
H3       H      0.569430000000     0.064467500000     0.562905000000     0.0952082  
H1       H      0.519262500000     0.118605000000     0.717335000000     0.345081   
Al1      Al     0.625000000000     0.000000000000     0.625000000000     5.605      
Al2      Al     0.500000000000     0.000000000000     0.625000000000     5.01216    
O1       O      0.704970000000     0.004327500000     0.639962500000    -2.16672    
O2       O      0.688237500000     0.225037500000     0.596022500000    -1.17029    
O3       O      0.615390000000     0.217192500000     0.603905000000    -1.31053    
O4       O      0.637350000000     0.148325000000     0.530082500000    -1.52733    
O5       O      0.554310000000     0.153335000000     0.525145000000    -1.37953    
C1       C      0.642557500000     0.211747500000     0.591545000000     0.79196    
C2       C      0.611390000000     0.191240000000     0.569492500000    -0.1324     
C3       C      0.636055000000     0.181980000000     0.556547500000    -0.356678   
C4       C      0.605327500000     0.160247500000     0.534900000000     1.24292    
H2       H      0.567580000000     0.183042500000     0.564235000000     0.0405865  
H3       H      0.680570000000     0.189467500000     0.562095000000     0.0992909  
H1       H      0.730737500000     0.243605000000     0.657665000000     0.345482   
O1       O      0.704970000000     0.120672500000     0.514962500000    -2.22555    
O2       O      0.688237500000     0.149962500000     0.721022500000    -1.17009    
O3       O      0.615390000000     0.157807500000     0.728905000000    -1.31054    
O4       O      0.637350000000     0.226675000000     0.655082500000    -1.52754    
O5       O      0.554310000000     0.221665000000     0.650145000000    -1.37963    
C1       C      0.642557500000     0.163252500000     0.716545000000     0.791872   
C2       C      0.611390000000     0.183760000000     0.694492500000    -0.132404   
C3       C      0.636055000000     0.193020000000     0.681547500000    -0.356806   
C4       C      0.605327500000     0.214752500000     0.659900000000     1.24286    
H2       H      0.567580000000     0.191957500000     0.689235000000     0.0404538  
H3       H      0.680570000000     0.185532500000     0.687095000000     0.0992664  
H1       H      0.730737500000     0.131395000000     0.532665000000     0.345832   
O1       O      0.545030000000     0.245672500000     0.610037500000    -2.2253     
O2       O      0.561762500000     0.024962500000     0.653977500000    -1.13518    
O3       O      0.634610000000     0.032807500000     0.646095000000    -1.26336    
O4       O      0.612650000000     0.101675000000     0.719917500000    -1.52836    
O5       O      0.695690000000     0.096665000000     0.724855000000    -1.38095    
C1       C      0.607442500000     0.038252500000     0.658455000000     0.761209   
C2       C      0.638610000000     0.058760000000     0.680507500000    -0.124507   
C3       C      0.613945000000     0.068020000000     0.693452500000    -0.362779   
C4       C      0.644672500000     0.089752500000     0.715100000000     1.24372    
H2       H      0.682420000000     0.066957500000     0.685765000000     0.0370671  
H3       H      0.569430000000     0.060532500000     0.687905000000     0.0986702  
H1       H      0.519262500000     0.006395000000     0.592335000000     0.300911   
Al1      Al     0.625000000000     0.125000000000     0.750000000000     5.89326    
Al2      Al     0.500000000000     0.125000000000     0.750000000000     5.27523    
O1       O      0.545030000000     0.129327500000     0.985037500000    -2.09628    
O2       O      0.561762500000     0.100037500000     0.778977500000    -1.17144    
O3       O      0.634610000000     0.092192500000     0.771095000000    -1.31225    
O4       O      0.612650000000     0.023325000000     0.844917500000    -1.47581    
O5       O      0.695690000000     0.028335000000     0.849855000000    -1.33007    
C1       C      0.607442500000     0.086747500000     0.783455000000     0.793537   
C2       C      0.638610000000     0.066240000000     0.805507500000    -0.140849   
C3       C      0.613945000000     0.056980000000     0.818452500000    -0.343454   
C4       C      0.644672500000     0.035247500000     0.840100000000     1.19908    
H2       H      0.682420000000     0.058042500000     0.810765000000     0.041882   
H3       H      0.569430000000     0.064467500000     0.812905000000     0.0951899  
H1       H      0.519262500000     0.118605000000     0.967335000000     0.334034   
Al1      Al     0.625000000000     0.000000000000     0.875000000000     5.60749    
Al2      Al     0.500000000000     0.000000000000     0.875000000000     5.01474    
O1       O      0.704970000000     0.004327500000     0.889962500000    -2.16722    
O2       O      0.688237500000     0.225037500000     0.846022500000    -1.17083    
O3       O      0.615390000000     0.217192500000     0.853905000000    -1.31101    
O4       O      0.637350000000     0.148325000000     0.780082500000    -1.52726    
O5       O      0.554310000000     0.153335000000     0.775145000000    -1.37948    
C1       C      0.642557500000     0.211747500000     0.841545000000     0.792259   
C2       C      0.611390000000     0.191240000000     0.819492500000    -0.13259    
C3       C      0.636055000000     0.181980000000     0.806547500000    -0.356664   
C4       C      0.605327500000     0.160247500000     0.784900000000     1.24273    
H2       H      0.567580000000     0.183042500000     0.814235000000     0.0405597  
H3       H      0.680570000000     0.189467500000     0.812095000000     0.0991775  
H1       H      0.730737500000     0.243605000000     0.907665000000     0.348039   
O1       O      0.704970000000     0.120672500000     0.764962500000    -2.22539    
O2       O      0.688237500000     0.149962500000     0.971022500000    -1.10651    
O3       O      0.615390000000     0.157807500000     0.978905000000    -1.23662    
O4       O      0.637350000000     0.226675000000     0.905082500000    -1.52664    
O5       O      0.554310000000     0.221665000000     0.900145000000    -1.37976    
C1       C      0.642557500000     0.163252500000     0.966545000000     0.762027   
C2       C      0.611390000000     0.183760000000     0.944492500000    -0.117099   
C3       C      0.636055000000     0.193020000000     0.931547500000    -0.360585   
C4       C      0.605327500000     0.214752500000     0.909900000000     1.24622    
H2       H      0.567580000000     0.191957500000     0.939235000000     0.0401786  
H3       H      0.680570000000     0.185532500000     0.937095000000     0.104079   
H1       H      0.730737500000     0.131395000000     0.782665000000     0.345759   
O1       O      0.545030000000     0.245672500000     0.860037500000    -2.22632    
O2       O      0.561762500000     0.024962500000     0.903977500000    -1.13478    
O3       O      0.634610000000     0.032807500000     0.896095000000    -1.26337    
O4       O      0.612650000000     0.101675000000     0.969917500000    -1.4484     
O5       O      0.695690000000     0.096665000000     0.974855000000    -1.30447    
C1       C      0.607442500000     0.038252500000     0.908455000000     0.765806   
C2       C      0.638610000000     0.058760000000     0.930507500000    -0.132041   
C3       C      0.613945000000     0.068020000000     0.943452500000    -0.3395     
C4       C      0.644672500000     0.089752500000     0.965100000000     1.19416    
H2       H      0.682420000000     0.066957500000     0.935765000000     0.0435994  
H3       H      0.569430000000     0.060532500000     0.937905000000     0.0975898  
H1       H      0.519262500000     0.006395000000     0.842335000000     0.300891   
Al1      Al     0.625000000000     0.375000000000     0.000000000000     5.59487    
Al2      Al     0.500000000000     0.375000000000     0.000000000000     5.00297    
O1       O      0.545030000000     0.379327500000     0.235037500000    -2.22548    
O2       O      0.561762500000     0.350037500000     0.028977500000    -1.12847    
O3       O      0.634610000000     0.342192500000     0.021095000000    -1.26627    
O4       O      0.612650000000     0.273325000000     0.094917500000    -1.52936    
O5       O      0.695690000000     0.278335000000     0.099855000000    -1.38076    
C1       C      0.607442500000     0.336747500000     0.033455000000     0.760193   
C2       C      0.638610000000     0.316240000000     0.055507500000    -0.123426   
C3       C      0.613945000000     0.306980000000     0.068452500000    -0.362947   
C4       C      0.644672500000     0.285247500000     0.090100000000     1.24467    
H2       H      0.682420000000     0.308042500000     0.060765000000     0.0365794  
H3       H      0.569430000000     0.314467500000     0.062905000000     0.0994812  
H1       H      0.519262500000     0.368605000000     0.217335000000     0.345387   
Al1      Al     0.625000000000     0.250000000000     0.125000000000     5.8945     
Al2      Al     0.500000000000     0.250000000000     0.125000000000     5.27742    
O1       O      0.704970000000     0.254327500000     0.139962500000    -2.22546    
O2       O      0.688237500000     0.475037500000     0.096022500000    -1.17219    
O3       O      0.615390000000     0.467192500000     0.103905000000    -1.31153    
O4       O      0.637350000000     0.398325000000     0.030082500000    -1.47182    
O5       O      0.554310000000     0.403335000000     0.025145000000    -1.333      
C1       C      0.642557500000     0.461747500000     0.091545000000     0.794302   
C2       C      0.611390000000     0.441240000000     0.069492500000    -0.141219   
C3       C      0.636055000000     0.431980000000     0.056547500000    -0.342686   
C4       C      0.605327500000     0.410247500000     0.034900000000     1.1943     
H2       H      0.567580000000     0.433042500000     0.064235000000     0.0421928  
H3       H      0.680570000000     0.439467500000     0.062095000000     0.0940865  
H1       H      0.730737500000     0.493605000000     0.157665000000     0.34561    
O1       O      0.704970000000     0.370672500000     0.014962500000    -2.13967    
O2       O      0.688237500000     0.399962500000     0.221022500000    -1.1703     
O3       O      0.615390000000     0.407807500000     0.228905000000    -1.31065    
O4       O      0.637350000000     0.476675000000     0.155082500000    -1.52743    
O5       O      0.554310000000     0.471665000000     0.150145000000    -1.37963    
C1       C      0.642557500000     0.413252500000     0.216545000000     0.792026   
C2       C      0.611390000000     0.433760000000     0.194492500000    -0.132368   
C3       C      0.636055000000     0.443020000000     0.181547500000    -0.356664   
C4       C      0.605327500000     0.464752500000     0.159900000000     1.243      
H2       H      0.567580000000     0.441957500000     0.189235000000     0.0405786  
H3       H      0.680570000000     0.435532500000     0.187095000000     0.099362   
H1       H      0.730737500000     0.381395000000     0.032665000000     0.337211   
O1       O      0.545030000000     0.495672500000     0.110037500000    -2.22542    
O2       O      0.561762500000     0.274962500000     0.153977500000    -1.17042    
O3       O      0.634610000000     0.282807500000     0.146095000000    -1.3104     
O4       O      0.612650000000     0.351675000000     0.219917500000    -1.52758    
O5       O      0.695690000000     0.346665000000     0.224855000000    -1.37951    
C1       C      0.607442500000     0.288252500000     0.158455000000     0.792201   
C2       C      0.638610000000     0.308760000000     0.180507500000    -0.132273   
C3       C      0.613945000000     0.318020000000     0.193452500000    -0.356649   
C4       C      0.644672500000     0.339752500000     0.215100000000     1.24298    
H2       H      0.682420000000     0.316957500000     0.185765000000     0.0408161  
H3       H      0.569430000000     0.310532500000     0.187905000000     0.0992676  
H1       H      0.519262500000     0.256395000000     0.092335000000     0.343936   
Al1      Al     0.625000000000     0.375000000000     0.250000000000     5.89414    
Al2      Al     0.500000000000     0.375000000000     0.250000000000     5.27639    
O1       O      0.545030000000     0.379327500000     0.485037500000    -2.2253     
O2       O      0.561762500000     0.350037500000     0.278977500000    -1.17044    
O3       O      0.634610000000     0.342192500000     0.271095000000    -1.31058    
O4       O      0.612650000000     0.273325000000     0.344917500000    -1.52769    
O5       O      0.695690000000     0.278335000000     0.349855000000    -1.3796     
C1       C      0.607442500000     0.336747500000     0.283455000000     0.792013   
C2       C      0.638610000000     0.316240000000     0.305507500000    -0.132432   
C3       C      0.613945000000     0.306980000000     0.318452500000    -0.356804   
C4       C      0.644672500000     0.285247500000     0.340100000000     1.24291    
H2       H      0.682420000000     0.308042500000     0.310765000000     0.0406581  
H3       H      0.569430000000     0.314467500000     0.312905000000     0.0991122  
H1       H      0.519262500000     0.368605000000     0.467335000000     0.345167   
Al1      Al     0.625000000000     0.250000000000     0.375000000000     5.89414    
Al2      Al     0.500000000000     0.250000000000     0.375000000000     5.27644    
O1       O      0.704970000000     0.254327500000     0.389962500000    -2.22541    
O2       O      0.688237500000     0.475037500000     0.346022500000    -1.17032    
O3       O      0.615390000000     0.467192500000     0.353905000000    -1.31062    
O4       O      0.637350000000     0.398325000000     0.280082500000    -1.52763    
O5       O      0.554310000000     0.403335000000     0.275145000000    -1.37976    
C1       C      0.642557500000     0.461747500000     0.341545000000     0.791854   
C2       C      0.611390000000     0.441240000000     0.319492500000    -0.132483   
C3       C      0.636055000000     0.431980000000     0.306547500000    -0.356868   
C4       C      0.605327500000     0.410247500000     0.284900000000     1.24292    
H2       H      0.567580000000     0.433042500000     0.314235000000     0.0404325  
H3       H      0.680570000000     0.439467500000     0.312095000000     0.0992029  
H1       H      0.730737500000     0.493605000000     0.407665000000     0.345459   
O1       O      0.704970000000     0.370672500000     0.264962500000    -2.2254     
O2       O      0.688237500000     0.399962500000     0.471022500000    -1.17036    
O3       O      0.615390000000     0.407807500000     0.478905000000    -1.31067    
O4       O      0.637350000000     0.476675000000     0.405082500000    -1.52755    
O5       O      0.554310000000     0.471665000000     0.400145000000    -1.37969    
C1       C      0.642557500000     0.413252500000     0.466545000000     0.791822   
C2       C      0.611390000000     0.433760000000     0.444492500000    -0.132552   
C3       C      0.636055000000     0.443020000000     0.431547500000    -0.356896   
C4       C      0.605327500000     0.464752500000     0.409900000000     1.24276    
H2       H      0.567580000000     0.441957500000     0.439235000000     0.0403772  
H3       H      0.680570000000     0.435532500000     0.437095000000     0.0991451  
H1       H      0.730737500000     0.381395000000     0.282665000000     0.345558   
O1       O      0.545030000000     0.495672500000     0.360037500000    -2.22528    
O2       O      0.561762500000     0.274962500000     0.403977500000    -1.17048    
O3       O      0.634610000000     0.282807500000     0.396095000000    -1.31064    
O4       O      0.612650000000     0.351675000000     0.469917500000    -1.52761    
O5       O      0.695690000000     0.346665000000     0.474855000000    -1.37951    
C1       C      0.607442500000     0.288252500000     0.408455000000     0.791979   
C2       C      0.638610000000     0.308760000000     0.430507500000    -0.132503   
C3       C      0.613945000000     0.318020000000     0.443452500000    -0.35683    
C4       C      0.644672500000     0.339752500000     0.465100000000     1.24275    
H2       H      0.682420000000     0.316957500000     0.435765000000     0.0406002  
H3       H      0.569430000000     0.310532500000     0.437905000000     0.0990558  
H1       H      0.519262500000     0.256395000000     0.342335000000     0.345273   
Al1      Al     0.625000000000     0.375000000000     0.500000000000     5.89336    
Al2      Al     0.500000000000     0.375000000000     0.500000000000     5.27564    
O1       O      0.545030000000     0.379327500000     0.735037500000    -2.22514    
O2       O      0.561762500000     0.350037500000     0.528977500000    -1.17042    
O3       O      0.634610000000     0.342192500000     0.521095000000    -1.31056    
O4       O      0.612650000000     0.273325000000     0.594917500000    -1.52766    
O5       O      0.695690000000     0.278335000000     0.599855000000    -1.37958    
C1       C      0.607442500000     0.336747500000     0.533455000000     0.791852   
C2       C      0.638610000000     0.316240000000     0.555507500000    -0.13253    
C3       C      0.613945000000     0.306980000000     0.568452500000    -0.3569     
C4       C      0.644672500000     0.285247500000     0.590100000000     1.24275    
H2       H      0.682420000000     0.308042500000     0.560765000000     0.0405509  
H3       H      0.569430000000     0.314467500000     0.562905000000     0.0990049  
H1       H      0.519262500000     0.368605000000     0.717335000000     0.345054   
Al1      Al     0.625000000000     0.250000000000     0.625000000000     5.8935     
Al2      Al     0.500000000000     0.250000000000     0.625000000000     5.27582    
O1       O      0.704970000000     0.254327500000     0.639962500000    -2.22526    
O2       O      0.688237500000     0.475037500000     0.596022500000    -1.17032    
O3       O      0.615390000000     0.467192500000     0.603905000000    -1.31062    
O4       O      0.637350000000     0.398325000000     0.530082500000    -1.52757    
O5       O      0.554310000000     0.403335000000     0.525145000000    -1.37972    
C1       C      0.642557500000     0.461747500000     0.591545000000     0.791712   
C2       C      0.611390000000     0.441240000000     0.569492500000    -0.132588   
C3       C      0.636055000000     0.431980000000     0.556547500000    -0.356956   
C4       C      0.605327500000     0.410247500000     0.534900000000     1.24273    
H2       H      0.567580000000     0.433042500000     0.564235000000     0.0403296  
H3       H      0.680570000000     0.439467500000     0.562095000000     0.0990918  
H1       H      0.730737500000     0.493605000000     0.657665000000     0.345338   
O1       O      0.704970000000     0.370672500000     0.514962500000    -2.2252     
O2       O      0.688237500000     0.399962500000     0.721022500000    -1.17036    
O3       O      0.615390000000     0.407807500000     0.728905000000    -1.31068    
O4       O      0.637350000000     0.476675000000     0.655082500000    -1.52753    
O5       O      0.554310000000     0.471665000000     0.650145000000    -1.37967    
C1       C      0.642557500000     0.413252500000     0.716545000000     0.791668   
C2       C      0.611390000000     0.433760000000     0.694492500000    -0.132659   
C3       C      0.636055000000     0.443020000000     0.681547500000    -0.356996   
C4       C      0.605327500000     0.464752500000     0.659900000000     1.24259    
H2       H      0.567580000000     0.441957500000     0.689235000000     0.0402665  
H3       H      0.680570000000     0.435532500000     0.687095000000     0.0990296  
H1       H      0.730737500000     0.381395000000     0.532665000000     0.345443   
O1       O      0.545030000000     0.495672500000     0.610037500000    -2.22513    
O2       O      0.561762500000     0.274962500000     0.653977500000    -1.17049    
O3       O      0.634610000000     0.282807500000     0.646095000000    -1.31065    
O4       O      0.612650000000     0.351675000000     0.719917500000    -1.52758    
O5       O      0.695690000000     0.346665000000     0.724855000000    -1.37949    
C1       C      0.607442500000     0.288252500000     0.658455000000     0.791835   
C2       C      0.638610000000     0.308760000000     0.680507500000    -0.13261    
C3       C      0.613945000000     0.318020000000     0.693452500000    -0.356929   
C4       C      0.644672500000     0.339752500000     0.715100000000     1.24257    
H2       H      0.682420000000     0.316957500000     0.685765000000     0.0404887  
H3       H      0.569430000000     0.310532500000     0.687905000000     0.0989419  
H1       H      0.519262500000     0.256395000000     0.592335000000     0.345164   
Al1      Al     0.625000000000     0.375000000000     0.750000000000     5.89269    
Al2      Al     0.500000000000     0.375000000000     0.750000000000     5.27496    
O1       O      0.545030000000     0.379327500000     0.985037500000    -2.09607    
O2       O      0.561762500000     0.350037500000     0.778977500000    -1.17037    
O3       O      0.634610000000     0.342192500000     0.771095000000    -1.31055    
O4       O      0.612650000000     0.273325000000     0.844917500000    -1.52827    
O5       O      0.695690000000     0.278335000000     0.849855000000    -1.38011    
C1       C      0.607442500000     0.336747500000     0.783455000000     0.79168    
C2       C      0.638610000000     0.316240000000     0.805507500000    -0.132494   
C3       C      0.613945000000     0.306980000000     0.818452500000    -0.357133   
C4       C      0.644672500000     0.285247500000     0.840100000000     1.24324    
H2       H      0.682420000000     0.308042500000     0.810765000000     0.0404195  
H3       H      0.569430000000     0.314467500000     0.812905000000     0.098985   
H1       H      0.519262500000     0.368605000000     0.967335000000     0.334      
Al1      Al     0.625000000000     0.250000000000     0.875000000000     5.89584    
Al2      Al     0.500000000000     0.250000000000     0.875000000000     5.27826    
O1       O      0.704970000000     0.254327500000     0.889962500000    -2.22574    
O2       O      0.688237500000     0.475037500000     0.846022500000    -1.17086    
O3       O      0.615390000000     0.467192500000     0.853905000000    -1.3111     
O4       O      0.637350000000     0.398325000000     0.780082500000    -1.5275     
O5       O      0.554310000000     0.403335000000     0.775145000000    -1.37968    
C1       C      0.642557500000     0.461747500000     0.841545000000     0.792012   
C2       C      0.611390000000     0.441240000000     0.819492500000    -0.132779   
C3       C      0.636055000000     0.431980000000     0.806547500000    -0.356941   
C4       C      0.605327500000     0.410247500000     0.784900000000     1.24254    
H2       H      0.567580000000     0.433042500000     0.814235000000     0.0403029  
H3       H      0.680570000000     0.439467500000     0.812095000000     0.0989785  
H1       H      0.730737500000     0.493605000000     0.907665000000     0.347896   
O1       O      0.704970000000     0.370672500000     0.764962500000    -2.22504    
O2       O      0.688237500000     0.399962500000     0.971022500000    -1.10674    
O3       O      0.615390000000     0.407807500000     0.978905000000    -1.23671    
O4       O      0.637350000000     0.476675000000     0.905082500000    -1.52664    
O5       O      0.554310000000     0.471665000000     0.900145000000    -1.3798     
C1       C      0.642557500000     0.413252500000     0.966545000000     0.761803   
C2       C      0.611390000000     0.433760000000     0.944492500000    -0.117345   
C3       C      0.636055000000     0.443020000000     0.931547500000    -0.360778   
C4       C      0.605327500000     0.464752500000     0.909900000000     1.24596    
H2       H      0.567580000000     0.441957500000     0.939235000000     0.0399902  
H3       H      0.680570000000     0.435532500000     0.937095000000     0.103844   
H1       H      0.730737500000     0.381395000000     0.782665000000     0.345369   
O1       O      0.545030000000     0.495672500000     0.860037500000    -2.22616    
O2       O      0.561762500000     0.274962500000     0.903977500000    -1.17007    
O3       O      0.634610000000     0.282807500000     0.896095000000    -1.31063    
O4       O      0.612650000000     0.351675000000     0.969917500000    -1.44757    
O5       O      0.695690000000     0.346665000000     0.974855000000    -1.30297    
C1       C      0.607442500000     0.288252500000     0.908455000000     0.796419   
C2       C      0.638610000000     0.308760000000     0.930507500000    -0.140145   
C3       C      0.613945000000     0.318020000000     0.943452500000    -0.333638   
C4       C      0.644672500000     0.339752500000     0.965100000000     1.19298    
H2       H      0.682420000000     0.316957500000     0.935765000000     0.0470231  
H3       H      0.569430000000     0.310532500000     0.937905000000     0.0978601  
H1       H      0.519262500000     0.256395000000     0.842335000000     0.345121   
Al1      Al     0.625000000000     0.625000000000     0.000000000000     5.59423    
Al2      Al     0.500000000000     0.625000000000     0.000000000000     5.00233    
O1       O      0.545030000000     0.629327500000     0.235037500000    -2.22533    
O2       O      0.561762500000     0.600037500000     0.028977500000    -1.12847    
O3       O      0.634610000000     0.592192500000     0.021095000000    -1.26627    
O4       O      0.612650000000     0.523325000000     0.094917500000    -1.5293     
O5       O      0.695690000000     0.528335000000     0.099855000000    -1.38071    
C1       C      0.607442500000     0.586747500000     0.033455000000     0.760051   
C2       C      0.638610000000     0.566240000000     0.055507500000    -0.123532   
C3       C      0.613945000000     0.556980000000     0.068452500000    -0.363033   
C4       C      0.644672500000     0.535247500000     0.090100000000     1.24447    
H2       H      0.682420000000     0.558042500000     0.060765000000     0.0364747  
H3       H      0.569430000000     0.564467500000     0.062905000000     0.0993712  
H1       H      0.519262500000     0.618605000000     0.217335000000     0.34528    
Al1      Al     0.625000000000     0.500000000000     0.125000000000     5.89373    
Al2      Al     0.500000000000     0.500000000000     0.125000000000     5.27662    
O1       O      0.704970000000     0.504327500000     0.139962500000    -2.22526    
O2       O      0.688237500000     0.725037500000     0.096022500000    -1.1722     
O3       O      0.615390000000     0.717192500000     0.103905000000    -1.31154    
O4       O      0.637350000000     0.648325000000     0.030082500000    -1.47179    
O5       O      0.554310000000     0.653335000000     0.025145000000    -1.33299    
C1       C      0.642557500000     0.711747500000     0.091545000000     0.794154   
C2       C      0.611390000000     0.691240000000     0.069492500000    -0.141327   
C3       C      0.636055000000     0.681980000000     0.056547500000    -0.342782   
C4       C      0.605327500000     0.660247500000     0.034900000000     1.19413    
H2       H      0.567580000000     0.683042500000     0.064235000000     0.0420855  
H3       H      0.680570000000     0.689467500000     0.062095000000     0.093973   
H1       H      0.730737500000     0.743605000000     0.157665000000     0.345488   
O1       O      0.704970000000     0.620672500000     0.014962500000    -2.13951    
O2       O      0.688237500000     0.649962500000     0.221022500000    -1.1703     
O3       O      0.615390000000     0.657807500000     0.228905000000    -1.31065    
O4       O      0.637350000000     0.726675000000     0.155082500000    -1.52741    
O5       O      0.554310000000     0.721665000000     0.150145000000    -1.37962    
C1       C      0.642557500000     0.663252500000     0.216545000000     0.791881   
C2       C      0.611390000000     0.683760000000     0.194492500000    -0.132474   
C3       C      0.636055000000     0.693020000000     0.181547500000    -0.356764   
C4       C      0.605327500000     0.714752500000     0.159900000000     1.24282    
H2       H      0.567580000000     0.691957500000     0.189235000000     0.0404681  
H3       H      0.680570000000     0.685532500000     0.187095000000     0.0992505  
H1       H      0.730737500000     0.631395000000     0.032665000000     0.337103   
O1       O      0.545030000000     0.745672500000     0.110037500000    -2.22526    
O2       O      0.561762500000     0.524962500000     0.153977500000    -1.17039    
O3       O      0.634610000000     0.532807500000     0.146095000000    -1.31038    
O4       O      0.612650000000     0.601675000000     0.219917500000    -1.52755    
O5       O      0.695690000000     0.596665000000     0.224855000000    -1.37949    
C1       C      0.607442500000     0.538252500000     0.158455000000     0.792043   
C2       C      0.638610000000     0.558760000000     0.180507500000    -0.13237    
C3       C      0.613945000000     0.568020000000     0.193452500000    -0.356745   
C4       C      0.644672500000     0.589752500000     0.215100000000     1.24281    
H2       H      0.682420000000     0.566957500000     0.185765000000     0.0407107  
H3       H      0.569430000000     0.560532500000     0.187905000000     0.0991597  
H1       H      0.519262500000     0.506395000000     0.092335000000     0.343819   
Al1      Al     0.625000000000     0.625000000000     0.250000000000     5.89351    
Al2      Al     0.500000000000     0.625000000000     0.250000000000     5.27577    
O1       O      0.545030000000     0.629327500000     0.485037500000    -2.22515    
O2       O      0.561762500000     0.600037500000     0.278977500000    -1.17044    
O3       O      0.634610000000     0.592192500000     0.271095000000    -1.31059    
O4       O      0.612650000000     0.523325000000     0.344917500000    -1.52763    
O5       O      0.695690000000     0.528335000000     0.349855000000    -1.37955    
C1       C      0.607442500000     0.586747500000     0.283455000000     0.791873   
C2       C      0.638610000000     0.566240000000     0.305507500000    -0.132537   
C3       C      0.613945000000     0.556980000000     0.318452500000    -0.356889   
C4       C      0.644672500000     0.535247500000     0.340100000000     1.24272    
H2       H      0.682420000000     0.558042500000     0.310765000000     0.0405539  
H3       H      0.569430000000     0.564467500000     0.312905000000     0.0990024  
H1       H      0.519262500000     0.618605000000     0.467335000000     0.34506    
Al1      Al     0.625000000000     0.500000000000     0.375000000000     5.89337    
Al2      Al     0.500000000000     0.500000000000     0.375000000000     5.27564    
O1       O      0.704970000000     0.504327500000     0.389962500000    -2.22522    
O2       O      0.688237500000     0.725037500000     0.346022500000    -1.17033    
O3       O      0.615390000000     0.717192500000     0.353905000000    -1.31062    
O4       O      0.637350000000     0.648325000000     0.280082500000    -1.5276     
O5       O      0.554310000000     0.653335000000     0.275145000000    -1.37975    
C1       C      0.642557500000     0.711747500000     0.341545000000     0.791705   
C2       C      0.611390000000     0.691240000000     0.319492500000    -0.13259    
C3       C      0.636055000000     0.681980000000     0.306547500000    -0.356966   
C4       C      0.605327500000     0.660247500000     0.284900000000     1.24276    
H2       H      0.567580000000     0.683042500000     0.314235000000     0.0403249  
H3       H      0.680570000000     0.689467500000     0.312095000000     0.0990893  
H1       H      0.730737500000     0.743605000000     0.407665000000     0.345337   
O1       O      0.704970000000     0.620672500000     0.264962500000    -2.22525    
O2       O      0.688237500000     0.649962500000     0.471022500000    -1.17036    
O3       O      0.615390000000     0.657807500000     0.478905000000    -1.31068    
O4       O      0.637350000000     0.726675000000     0.405082500000    -1.52753    
O5       O      0.554310000000     0.721665000000     0.400145000000    -1.37967    
C1       C      0.642557500000     0.663252500000     0.466545000000     0.791677   
C2       C      0.611390000000     0.683760000000     0.444492500000    -0.132658   
C3       C      0.636055000000     0.693020000000     0.431547500000    -0.356996   
C4       C      0.605327500000     0.714752500000     0.409900000000     1.24259    
H2       H      0.567580000000     0.691957500000     0.439235000000     0.0402667  
H3       H      0.680570000000     0.685532500000     0.437095000000     0.0990336  
H1       H      0.730737500000     0.631395000000     0.282665000000     0.34545    
O1       O      0.545030000000     0.745672500000     0.360037500000    -2.22513    
O2       O      0.561762500000     0.524962500000     0.403977500000    -1.17045    
O3       O      0.634610000000     0.532807500000     0.396095000000    -1.31062    
O4       O      0.612650000000     0.601675000000     0.469917500000    -1.52758    
O5       O      0.695690000000     0.596665000000     0.474855000000    -1.37949    
C1       C      0.607442500000     0.538252500000     0.408455000000     0.79182    
C2       C      0.638610000000     0.558760000000     0.430507500000    -0.132599   
C3       C      0.613945000000     0.568020000000     0.443452500000    -0.356926   
C4       C      0.644672500000     0.589752500000     0.465100000000     1.24259    
H2       H      0.682420000000     0.566957500000     0.435765000000     0.0404946  
H3       H      0.569430000000     0.560532500000     0.437905000000     0.0989478  
H1       H      0.519262500000     0.506395000000     0.342335000000     0.345157   
Al1      Al     0.625000000000     0.625000000000     0.500000000000     5.89273    
Al2      Al     0.500000000000     0.625000000000     0.500000000000     5.27502    
O1       O      0.545030000000     0.629327500000     0.735037500000    -2.225      
O2       O      0.561762500000     0.600037500000     0.528977500000    -1.17042    
O3       O      0.634610000000     0.592192500000     0.521095000000    -1.31057    
O4       O      0.612650000000     0.523325000000     0.594917500000    -1.52761    
O5       O      0.695690000000     0.528335000000     0.599855000000    -1.37953    
C1       C      0.607442500000     0.586747500000     0.533455000000     0.791712   
C2       C      0.638610000000     0.566240000000     0.555507500000    -0.132636   
C3       C      0.613945000000     0.556980000000     0.568452500000    -0.356985   
C4       C      0.644672500000     0.535247500000     0.590100000000     1.24256    
H2       H      0.682420000000     0.558042500000     0.560765000000     0.0404466  
H3       H      0.569430000000     0.564467500000     0.562905000000     0.0988951  
H1       H      0.519262500000     0.618605000000     0.717335000000     0.344947   
Al1      Al     0.625000000000     0.500000000000     0.625000000000     5.89273    
Al2      Al     0.500000000000     0.500000000000     0.625000000000     5.27502    
O1       O      0.704970000000     0.504327500000     0.639962500000    -2.22507    
O2       O      0.688237500000     0.725037500000     0.596022500000    -1.17033    
O3       O      0.615390000000     0.717192500000     0.603905000000    -1.31062    
O4       O      0.637350000000     0.648325000000     0.530082500000    -1.52755    
O5       O      0.554310000000     0.653335000000     0.525145000000    -1.37971    
C1       C      0.642557500000     0.711747500000     0.591545000000     0.791564   
C2       C      0.611390000000     0.691240000000     0.569492500000    -0.132695   
C3       C      0.636055000000     0.681980000000     0.556547500000    -0.357053   
C4       C      0.605327500000     0.660247500000     0.534900000000     1.24256    
H2       H      0.567580000000     0.683042500000     0.564235000000     0.040222   
H3       H      0.680570000000     0.689467500000     0.562095000000     0.0989782  
H1       H      0.730737500000     0.743605000000     0.657665000000     0.345216   
O1       O      0.704970000000     0.620672500000     0.514962500000    -2.22505    
O2       O      0.688237500000     0.649962500000     0.721022500000    -1.17036    
O3       O      0.615390000000     0.657807500000     0.728905000000    -1.31069    
O4       O      0.637350000000     0.726675000000     0.655082500000    -1.52751    
O5       O      0.554310000000     0.721665000000     0.650145000000    -1.37966    
C1       C      0.642557500000     0.663252500000     0.716545000000     0.791523   
C2       C      0.611390000000     0.683760000000     0.694492500000    -0.132764   
C3       C      0.636055000000     0.693020000000     0.681547500000    -0.357095   
C4       C      0.605327500000     0.714752500000     0.659900000000     1.24242    
H2       H      0.567580000000     0.691957500000     0.689235000000     0.040156   
H3       H      0.680570000000     0.685532500000     0.687095000000     0.0989182  
H1       H      0.730737500000     0.631395000000     0.532665000000     0.345335   
O1       O      0.545030000000     0.745672500000     0.610037500000    -2.22498    
O2       O      0.561762500000     0.524962500000     0.653977500000    -1.17046    
O3       O      0.634610000000     0.532807500000     0.646095000000    -1.31062    
O4       O      0.612650000000     0.601675000000     0.719917500000    -1.52755    
O5       O      0.695690000000     0.596665000000     0.724855000000    -1.37948    
C1       C      0.607442500000     0.538252500000     0.658455000000     0.791677   
C2       C      0.638610000000     0.558760000000     0.680507500000    -0.132707   
C3       C      0.613945000000     0.568020000000     0.693452500000    -0.357025   
C4       C      0.644672500000     0.589752500000     0.715100000000     1.24241    
H2       H      0.682420000000     0.566957500000     0.685765000000     0.0403831  
H3       H      0.569430000000     0.560532500000     0.687905000000     0.0988339  
H1       H      0.519262500000     0.506395000000     0.592335000000     0.345048   
Al1      Al     0.625000000000     0.625000000000     0.750000000000     5.89205    
Al2      Al     0.500000000000     0.625000000000     0.750000000000     5.27433    
O1       O      0.545030000000     0.629327500000     0.985037500000    -2.09592    
O2       O      0.561762500000     0.600037500000     0.778977500000    -1.17037    
O3       O      0.634610000000     0.592192500000     0.771095000000    -1.31055    
O4       O      0.612650000000     0.523325000000     0.844917500000    -1.52822    
O5       O      0.695690000000     0.528335000000     0.849855000000    -1.38006    
C1       C      0.607442500000     0.586747500000     0.783455000000     0.79154    
C2       C      0.638610000000     0.566240000000     0.805507500000    -0.132599   
C3       C      0.613945000000     0.556980000000     0.818452500000    -0.357218   
C4       C      0.644672500000     0.535247500000     0.840100000000     1.24305    
H2       H      0.682420000000     0.558042500000     0.810765000000     0.0403153  
H3       H      0.569430000000     0.564467500000     0.812905000000     0.0988753  
H1       H      0.519262500000     0.618605000000     0.967335000000     0.333893   
Al1      Al     0.625000000000     0.500000000000     0.875000000000     5.89507    
Al2      Al     0.500000000000     0.500000000000     0.875000000000     5.27746    
O1       O      0.704970000000     0.504327500000     0.889962500000    -2.22554    
O2       O      0.688237500000     0.725037500000     0.846022500000    -1.17087    
O3       O      0.615390000000     0.717192500000     0.853905000000    -1.3111     
O4       O      0.637350000000     0.648325000000     0.780082500000    -1.52748    
O5       O      0.554310000000     0.653335000000     0.775145000000    -1.37966    
C1       C      0.642557500000     0.711747500000     0.841545000000     0.791863   
C2       C      0.611390000000     0.691240000000     0.819492500000    -0.132886   
C3       C      0.636055000000     0.681980000000     0.806547500000    -0.357039   
C4       C      0.605327500000     0.660247500000     0.784900000000     1.24238    
H2       H      0.567580000000     0.683042500000     0.814235000000     0.0401954  
H3       H      0.680570000000     0.689467500000     0.812095000000     0.098865   
H1       H      0.730737500000     0.743605000000     0.907665000000     0.347773   
O1       O      0.704970000000     0.620672500000     0.764962500000    -2.22489    
O2       O      0.688237500000     0.649962500000     0.971022500000    -1.10674    
O3       O      0.615390000000     0.657807500000     0.978905000000    -1.23672    
O4       O      0.637350000000     0.726675000000     0.905082500000    -1.52662    
O5       O      0.554310000000     0.721665000000     0.900145000000    -1.37979    
C1       C      0.642557500000     0.663252500000     0.966545000000     0.761656   
C2       C      0.611390000000     0.683760000000     0.944492500000    -0.11745    
C3       C      0.636055000000     0.693020000000     0.931547500000    -0.360878   
C4       C      0.605327500000     0.714752500000     0.909900000000     1.24579    
H2       H      0.567580000000     0.691957500000     0.939235000000     0.039879   
H3       H      0.680570000000     0.685532500000     0.937095000000     0.103733   
H1       H      0.730737500000     0.631395000000     0.782665000000     0.345261   
O1       O      0.545030000000     0.745672500000     0.860037500000    -2.226      
O2       O      0.561762500000     0.524962500000     0.903977500000    -1.17004    
O3       O      0.634610000000     0.532807500000     0.896095000000    -1.3106     
O4       O      0.612650000000     0.601675000000     0.969917500000    -1.44754    
O5       O      0.695690000000     0.596665000000     0.974855000000    -1.30295    
C1       C      0.607442500000     0.538252500000     0.908455000000     0.796261   
C2       C      0.638610000000     0.558760000000     0.930507500000    -0.140242   
C3       C      0.613945000000     0.568020000000     0.943452500000    -0.333733   
C4       C      0.644672500000     0.589752500000     0.965100000000     1.19281    
H2       H      0.682420000000     0.566957500000     0.935765000000     0.046918   
H3       H      0.569430000000     0.560532500000     0.937905000000     0.0977524  
H1       H      0.519262500000     0.506395000000     0.842335000000     0.345005   
Al1      Al     0.625000000000     0.875000000000     0.000000000000     5.59642    
Al2      Al     0.500000000000     0.875000000000     0.000000000000     5.00552    
O1       O      0.545030000000     0.879327500000     0.235037500000    -2.22556    
O2       O      0.561762500000     0.850037500000     0.028977500000    -1.12917    
O3       O      0.634610000000     0.842192500000     0.021095000000    -1.26683    
O4       O      0.612650000000     0.773325000000     0.094917500000    -1.52926    
O5       O      0.695690000000     0.778335000000     0.099855000000    -1.38065    
C1       C      0.607442500000     0.836747500000     0.033455000000     0.760267   
C2       C      0.638610000000     0.816240000000     0.055507500000    -0.123721   
C3       C      0.613945000000     0.806980000000     0.068452500000    -0.363022   
C4       C      0.644672500000     0.785247500000     0.090100000000     1.24431    
H2       H      0.682420000000     0.808042500000     0.060765000000     0.0364314  
H3       H      0.569430000000     0.814467500000     0.062905000000     0.0992899  
H1       H      0.519262500000     0.868605000000     0.217335000000     0.345423   
Al1      Al     0.625000000000     0.750000000000     0.125000000000     5.89305    
Al2      Al     0.500000000000     0.750000000000     0.125000000000     5.27598    
O1       O      0.704970000000     0.754327500000     0.139962500000    -2.2251     
O2       O      0.688237500000     0.975037500000     0.096022500000    -1.10546    
O3       O      0.615390000000     0.967192500000     0.103905000000    -1.24507    
O4       O      0.637350000000     0.898325000000     0.030082500000    -1.47197    
O5       O      0.554310000000     0.903335000000     0.025145000000    -1.33272    
C1       C      0.642557500000     0.961747500000     0.091545000000     0.765206   
C2       C      0.611390000000     0.941240000000     0.069492500000    -0.125961   
C3       C      0.636055000000     0.931980000000     0.056547500000    -0.346562   
C4       C      0.605327500000     0.910247500000     0.034900000000     1.19811    
H2       H      0.567580000000     0.933042500000     0.064235000000     0.0411663  
H3       H      0.680570000000     0.939467500000     0.062095000000     0.0992951  
H1       H      0.730737500000     0.993605000000     0.157665000000     0.371351   
O1       O      0.704970000000     0.870672500000     0.014962500000    -2.14046    
O2       O      0.688237500000     0.899962500000     0.221022500000    -1.17069    
O3       O      0.615390000000     0.907807500000     0.228905000000    -1.30961    
O4       O      0.637350000000     0.976675000000     0.155082500000    -1.44883    
O5       O      0.554310000000     0.971665000000     0.150145000000    -1.31073    
C1       C      0.642557500000     0.913252500000     0.216545000000     0.796932   
C2       C      0.611390000000     0.933760000000     0.194492500000    -0.139838   
C3       C      0.636055000000     0.943020000000     0.181547500000    -0.334292   
C4       C      0.605327500000     0.964752500000     0.159900000000     1.19218    
H2       H      0.567580000000     0.941957500000     0.189235000000     0.0470924  
H3       H      0.680570000000     0.935532500000     0.187095000000     0.0969898  
H1       H      0.730737500000     0.881395000000     0.032665000000     0.337807   
O1       O      0.545030000000     0.995672500000     0.110037500000    -2.07676    
O2       O      0.561762500000     0.774962500000     0.153977500000    -1.17037    
O3       O      0.634610000000     0.782807500000     0.146095000000    -1.31032    
O4       O      0.612650000000     0.851675000000     0.219917500000    -1.5281     
O5       O      0.695690000000     0.846665000000     0.224855000000    -1.3802     
C1       C      0.607442500000     0.788252500000     0.158455000000     0.791903   
C2       C      0.638610000000     0.808760000000     0.180507500000    -0.13234    
C3       C      0.613945000000     0.818020000000     0.193452500000    -0.356966   
C4       C      0.644672500000     0.839752500000     0.215100000000     1.24318    
H2       H      0.682420000000     0.816957500000     0.185765000000     0.040646   
H3       H      0.569430000000     0.810532500000     0.187905000000     0.0991306  
H1       H      0.519262500000     0.756395000000     0.092335000000     0.343708   
Al1      Al     0.625000000000     0.875000000000     0.250000000000     5.89554    
Al2      Al     0.500000000000     0.875000000000     0.250000000000     5.27882    
O1       O      0.545030000000     0.879327500000     0.485037500000    -2.22539    
O2       O      0.561762500000     0.850037500000     0.278977500000    -1.17112    
O3       O      0.634610000000     0.842192500000     0.271095000000    -1.31113    
O4       O      0.612650000000     0.773325000000     0.344917500000    -1.52759    
O5       O      0.695690000000     0.778335000000     0.349855000000    -1.3795     
C1       C      0.607442500000     0.836747500000     0.283455000000     0.792073   
C2       C      0.638610000000     0.816240000000     0.305507500000    -0.132721   
C3       C      0.613945000000     0.806980000000     0.318452500000    -0.356881   
C4       C      0.644672500000     0.785247500000     0.340100000000     1.24256    
H2       H      0.682420000000     0.808042500000     0.310765000000     0.0405091  
H3       H      0.569430000000     0.814467500000     0.312905000000     0.0989219  
H1       H      0.519262500000     0.868605000000     0.467335000000     0.345203   
Al1      Al     0.625000000000     0.750000000000     0.375000000000     5.89269    
Al2      Al     0.500000000000     0.750000000000     0.375000000000     5.275      
O1       O      0.704970000000     0.754327500000     0.389962500000    -2.22505    
O2       O      0.688237500000     0.975037500000     0.346022500000    -1.10355    
O3       O      0.615390000000     0.967192500000     0.353905000000    -1.24411    
O4       O      0.637350000000     0.898325000000     0.280082500000    -1.52775    
O5       O      0.554310000000     0.903335000000     0.275145000000    -1.37946    
C1       C      0.642557500000     0.961747500000     0.341545000000     0.762738   
C2       C      0.611390000000     0.941240000000     0.319492500000    -0.117218   
C3       C      0.636055000000     0.931980000000     0.306547500000    -0.360741   
C4       C      0.605327500000     0.910247500000     0.284900000000     1.24672    
H2       H      0.567580000000     0.933042500000     0.314235000000     0.0394056  
H3       H      0.680570000000     0.939467500000     0.312095000000     0.104412   
H1       H      0.730737500000     0.993605000000     0.407665000000     0.371212   
O1       O      0.704970000000     0.870672500000     0.264962500000    -2.22615    
O2       O      0.688237500000     0.899962500000     0.471022500000    -1.17075    
O3       O      0.615390000000     0.907807500000     0.478905000000    -1.30963    
O4       O      0.637350000000     0.976675000000     0.405082500000    -1.44889    
O5       O      0.554310000000     0.971665000000     0.400145000000    -1.31074    
C1       C      0.642557500000     0.913252500000     0.466545000000     0.796731   
C2       C      0.611390000000     0.933760000000     0.444492500000    -0.140027   
C3       C      0.636055000000     0.943020000000     0.431547500000    -0.33451    
C4       C      0.605327500000     0.964752500000     0.409900000000     1.19191    
H2       H      0.567580000000     0.941957500000     0.439235000000     0.0468944  
H3       H      0.680570000000     0.935532500000     0.437095000000     0.0967708  
H1       H      0.730737500000     0.881395000000     0.282665000000     0.34615    
O1       O      0.545030000000     0.995672500000     0.360037500000    -2.07653    
O2       O      0.561762500000     0.774962500000     0.403977500000    -1.17043    
O3       O      0.634610000000     0.782807500000     0.396095000000    -1.31056    
O4       O      0.612650000000     0.851675000000     0.469917500000    -1.52813    
O5       O      0.695690000000     0.846665000000     0.474855000000    -1.3802     
C1       C      0.607442500000     0.788252500000     0.408455000000     0.79168    
C2       C      0.638610000000     0.808760000000     0.430507500000    -0.132569   
C3       C      0.613945000000     0.818020000000     0.443452500000    -0.357147   
C4       C      0.644672500000     0.839752500000     0.465100000000     1.24295    
H2       H      0.682420000000     0.816957500000     0.435765000000     0.04043    
H3       H      0.569430000000     0.810532500000     0.437905000000     0.0989187  
H1       H      0.519262500000     0.756395000000     0.342335000000     0.345046   
Al1      Al     0.625000000000     0.875000000000     0.500000000000     5.89476    
Al2      Al     0.500000000000     0.875000000000     0.500000000000     5.27808    
O1       O      0.545030000000     0.879327500000     0.735037500000    -2.22523    
O2       O      0.561762500000     0.850037500000     0.528977500000    -1.1711     
O3       O      0.634610000000     0.842192500000     0.521095000000    -1.31111    
O4       O      0.612650000000     0.773325000000     0.594917500000    -1.52756    
O5       O      0.695690000000     0.778335000000     0.599855000000    -1.37948    
C1       C      0.607442500000     0.836747500000     0.533455000000     0.791912   
C2       C      0.638610000000     0.816240000000     0.555507500000    -0.132819   
C3       C      0.613945000000     0.806980000000     0.568452500000    -0.356977   
C4       C      0.644672500000     0.785247500000     0.590100000000     1.24239    
H2       H      0.682420000000     0.808042500000     0.560765000000     0.0404019  
H3       H      0.569430000000     0.814467500000     0.562905000000     0.0988146  
H1       H      0.519262500000     0.868605000000     0.717335000000     0.345091   
Al1      Al     0.625000000000     0.750000000000     0.625000000000     5.89205    
Al2      Al     0.500000000000     0.750000000000     0.625000000000     5.27438    
O1       O      0.704970000000     0.754327500000     0.639962500000    -2.2249     
O2       O      0.688237500000     0.975037500000     0.596022500000    -1.10355    
O3       O      0.615390000000     0.967192500000     0.603905000000    -1.24411    
O4       O      0.637350000000     0.898325000000     0.530082500000    -1.5277     
O5       O      0.554310000000     0.903335000000     0.525145000000    -1.37942    
C1       C      0.642557500000     0.961747500000     0.591545000000     0.762595   
C2       C      0.611390000000     0.941240000000     0.569492500000    -0.117322   
C3       C      0.636055000000     0.931980000000     0.556547500000    -0.360828   
C4       C      0.605327500000     0.910247500000     0.534900000000     1.24653    
H2       H      0.567580000000     0.933042500000     0.564235000000     0.0393029  
H3       H      0.680570000000     0.939467500000     0.562095000000     0.104302   
H1       H      0.730737500000     0.993605000000     0.657665000000     0.371088   
O1       O      0.704970000000     0.870672500000     0.514962500000    -2.22595    
O2       O      0.688237500000     0.899962500000     0.721022500000    -1.17075    
O3       O      0.615390000000     0.907807500000     0.728905000000    -1.30964    
O4       O      0.637350000000     0.976675000000     0.655082500000    -1.44887    
O5       O      0.554310000000     0.971665000000     0.650145000000    -1.31072    
C1       C      0.642557500000     0.913252500000     0.716545000000     0.796576   
C2       C      0.611390000000     0.933760000000     0.694492500000    -0.140135   
C3       C      0.636055000000     0.943020000000     0.681547500000    -0.334609   
C4       C      0.605327500000     0.964752500000     0.659900000000     1.19174    
H2       H      0.567580000000     0.941957500000     0.689235000000     0.0467832  
H3       H      0.680570000000     0.935532500000     0.687095000000     0.096655   
H1       H      0.730737500000     0.881395000000     0.532665000000     0.346035   
O1       O      0.545030000000     0.995672500000     0.610037500000    -2.07637    
O2       O      0.561762500000     0.774962500000     0.653977500000    -1.17044    
O3       O      0.634610000000     0.782807500000     0.646095000000    -1.31056    
O4       O      0.612650000000     0.851675000000     0.719917500000    -1.52811    
O5       O      0.695690000000     0.846665000000     0.724855000000    -1.38018    
C1       C      0.607442500000     0.788252500000     0.658455000000     0.791536   
C2       C      0.638610000000     0.808760000000     0.680507500000    -0.132676   
C3       C      0.613945000000     0.818020000000     0.693452500000    -0.357246   
C4       C      0.644672500000     0.839752500000     0.715100000000     1.24277    
H2       H      0.682420000000     0.816957500000     0.685765000000     0.0403186  
H3       H      0.569430000000     0.810532500000     0.687905000000     0.0988049  
H1       H      0.519262500000     0.756395000000     0.592335000000     0.344937   
Al1      Al     0.625000000000     0.875000000000     0.750000000000     5.89409    
Al2      Al     0.500000000000     0.875000000000     0.750000000000     5.27739    
O1       O      0.545030000000     0.879327500000     0.985037500000    -2.09623    
O2       O      0.561762500000     0.850037500000     0.778977500000    -1.17105    
O3       O      0.634610000000     0.842192500000     0.771095000000    -1.31109    
O4       O      0.612650000000     0.773325000000     0.844917500000    -1.52817    
O5       O      0.695690000000     0.778335000000     0.849855000000    -1.38       
C1       C      0.607442500000     0.836747500000     0.783455000000     0.79174    
C2       C      0.638610000000     0.816240000000     0.805507500000    -0.132783   
C3       C      0.613945000000     0.806980000000     0.818452500000    -0.35721    
C4       C      0.644672500000     0.785247500000     0.840100000000     1.24288    
H2       H      0.682420000000     0.808042500000     0.810765000000     0.0402707  
H3       H      0.569430000000     0.814467500000     0.812905000000     0.0987949  
H1       H      0.519262500000     0.868605000000     0.967335000000     0.334043   
Al1      Al     0.625000000000     0.750000000000     0.875000000000     5.89439    
Al2      Al     0.500000000000     0.750000000000     0.875000000000     5.27682    
O1       O      0.704970000000     0.754327500000     0.889962500000    -2.22538    
O2       O      0.688237500000     0.975037500000     0.846022500000    -1.10412    
O3       O      0.615390000000     0.967192500000     0.853905000000    -1.24462    
O4       O      0.637350000000     0.898325000000     0.780082500000    -1.52763    
O5       O      0.554310000000     0.903335000000     0.775145000000    -1.37938    
C1       C      0.642557500000     0.961747500000     0.841545000000     0.76291    
C2       C      0.611390000000     0.941240000000     0.819492500000    -0.11752    
C3       C      0.636055000000     0.931980000000     0.806547500000    -0.360812   
C4       C      0.605327500000     0.910247500000     0.784900000000     1.24634    
H2       H      0.567580000000     0.933042500000     0.814235000000     0.039277   
H3       H      0.680570000000     0.939467500000     0.812095000000     0.104186   
H1       H      0.730737500000     0.993605000000     0.907665000000     0.373623   
O1       O      0.704970000000     0.870672500000     0.764962500000    -2.22579    
O2       O      0.688237500000     0.899962500000     0.971022500000    -1.10716    
O3       O      0.615390000000     0.907807500000     0.978905000000    -1.23572    
O4       O      0.637350000000     0.976675000000     0.905082500000    -1.44803    
O5       O      0.554310000000     0.971665000000     0.900145000000    -1.31089    
C1       C      0.642557500000     0.913252500000     0.966545000000     0.76672    
C2       C      0.611390000000     0.933760000000     0.944492500000    -0.124826   
C3       C      0.636055000000     0.943020000000     0.931547500000    -0.338404   
C4       C      0.605327500000     0.964752500000     0.909900000000     1.19513    
H2       H      0.567580000000     0.941957500000     0.939235000000     0.046501   
H3       H      0.680570000000     0.935532500000     0.937095000000     0.101467   
H1       H      0.730737500000     0.881395000000     0.782665000000     0.345962   
O1       O      0.545030000000     0.995672500000     0.860037500000    -2.07747    
O2       O      0.561762500000     0.774962500000     0.903977500000    -1.17002    
O3       O      0.634610000000     0.782807500000     0.896095000000    -1.31055    
O4       O      0.612650000000     0.851675000000     0.969917500000    -1.44813    
O5       O      0.695690000000     0.846665000000     0.974855000000    -1.3037     
C1       C      0.607442500000     0.788252500000     0.908455000000     0.796118   
C2       C      0.638610000000     0.808760000000     0.930507500000    -0.140207   
C3       C      0.613945000000     0.818020000000     0.943452500000    -0.333965   
C4       C      0.644672500000     0.839752500000     0.965100000000     1.1932     
H2       H      0.682420000000     0.816957500000     0.935765000000     0.0468506  
H3       H      0.569430000000     0.810532500000     0.937905000000     0.0977243  
H1       H      0.519262500000     0.756395000000     0.842335000000     0.344894   
Al1      Al     0.875000000000     0.125000000000     0.000000000000     5.58724    
Al2      Al     0.750000000000     0.125000000000     0.000000000000     5.00412    
O1       O      0.795030000000     0.129327500000     0.235037500000    -2.2237     
O2       O      0.811762500000     0.100037500000     0.028977500000    -1.12934    
O3       O      0.884610000000     0.092192500000     0.021095000000    -1.26474    
O4       O      0.862650000000     0.023325000000     0.094917500000    -1.46955    
O5       O      0.945690000000     0.028335000000     0.099855000000    -1.29675    
C1       C      0.857442500000     0.086747500000     0.033455000000     0.763724   
C2       C      0.888610000000     0.066240000000     0.055507500000    -0.133584   
C3       C      0.863945000000     0.056980000000     0.068452500000    -0.341655   
C4       C      0.894672500000     0.035247500000     0.090100000000     1.18687    
H2       H      0.932420000000     0.058042500000     0.060765000000     0.0442421  
H3       H      0.819430000000     0.064467500000     0.062905000000     0.0946831  
H1       H      0.769262500000     0.118605000000     0.217335000000     0.345084   
Al1      Al     0.875000000000     0.000000000000     0.125000000000     5.59576    
Al2      Al     0.750000000000     0.000000000000     0.125000000000     5.01375    
O1       O      0.954970000000     0.004327500000     0.139962500000    -2.13622    
O2       O      0.938237500000     0.225037500000     0.096022500000    -1.14225    
O3       O      0.865390000000     0.217192500000     0.103905000000    -1.30528    
O4       O      0.887350000000     0.148325000000     0.030082500000    -1.46782    
O5       O      0.804310000000     0.153335000000     0.025145000000    -1.33264    
C1       C      0.892557500000     0.211747500000     0.091545000000     0.786021   
C2       C      0.861390000000     0.191240000000     0.069492500000    -0.135316   
C3       C      0.886055000000     0.181980000000     0.056547500000    -0.343122   
C4       C      0.855327500000     0.160247500000     0.034900000000     1.1954     
H2       H      0.817580000000     0.183042500000     0.064235000000     0.0418584  
H3       H      0.930570000000     0.189467500000     0.062095000000     0.100089   
H1       H      0.980737500000     0.243605000000     0.157665000000     0.352358   
O1       O      0.954970000000     0.120672500000     0.014962500000    -2.11048    
O2       O      0.938237500000     0.149962500000     0.221022500000    -1.13972    
O3       O      0.865390000000     0.157807500000     0.228905000000    -1.30426    
O4       O      0.887350000000     0.226675000000     0.155082500000    -1.52323    
O5       O      0.804310000000     0.221665000000     0.150145000000    -1.37919    
C1       C      0.892557500000     0.163252500000     0.216545000000     0.783586   
C2       C      0.861390000000     0.183760000000     0.194492500000    -0.126365   
C3       C      0.886055000000     0.193020000000     0.181547500000    -0.357113   
C4       C      0.855327500000     0.214752500000     0.159900000000     1.24388    
H2       H      0.817580000000     0.191957500000     0.189235000000     0.0401808  
H3       H      0.930570000000     0.185532500000     0.187095000000     0.105446   
H1       H      0.980737500000     0.131395000000     0.032665000000     0.344176   
O1       O      0.795030000000     0.245672500000     0.110037500000    -2.22371    
O2       O      0.811762500000     0.024962500000     0.153977500000    -1.13475    
O3       O      0.884610000000     0.032807500000     0.146095000000    -1.25959    
O4       O      0.862650000000     0.101675000000     0.219917500000    -1.52087    
O5       O      0.945690000000     0.096665000000     0.224855000000    -1.34648    
C1       C      0.857442500000     0.038252500000     0.158455000000     0.763131   
C2       C      0.888610000000     0.058760000000     0.180507500000    -0.125969   
C3       C      0.863945000000     0.068020000000     0.193452500000    -0.354793   
C4       C      0.894672500000     0.089752500000     0.215100000000     1.23026    
H2       H      0.932420000000     0.066957500000     0.185765000000     0.0436543  
H3       H      0.819430000000     0.060532500000     0.187905000000     0.0979814  
H1       H      0.769262500000     0.006395000000     0.092335000000     0.299416   
Al1      Al     0.875000000000     0.125000000000     0.250000000000     5.8839     
Al2      Al     0.750000000000     0.125000000000     0.250000000000     5.27632    
O1       O      0.795030000000     0.129327500000     0.485037500000    -2.22349    
O2       O      0.811762500000     0.100037500000     0.278977500000    -1.17109    
O3       O      0.884610000000     0.092192500000     0.271095000000    -1.30865    
O4       O      0.862650000000     0.023325000000     0.344917500000    -1.46768    
O5       O      0.945690000000     0.028335000000     0.349855000000    -1.29481    
C1       C      0.857442500000     0.086747500000     0.283455000000     0.795394   
C2       C      0.888610000000     0.066240000000     0.305507500000    -0.142589   
C3       C      0.863945000000     0.056980000000     0.318452500000    -0.335367   
C4       C      0.894672500000     0.035247500000     0.340100000000     1.18478    
H2       H      0.932420000000     0.058042500000     0.310765000000     0.048424   
H3       H      0.819430000000     0.064467500000     0.312905000000     0.0942945  
H1       H      0.769262500000     0.118605000000     0.467335000000     0.344859   
Al1      Al     0.875000000000     0.000000000000     0.375000000000     5.59491    
Al2      Al     0.750000000000     0.000000000000     0.375000000000     5.01256    
O1       O      0.954970000000     0.004327500000     0.389962500000    -2.13544    
O2       O      0.938237500000     0.225037500000     0.346022500000    -1.13972    
O3       O      0.865390000000     0.217192500000     0.353905000000    -1.30423    
O4       O      0.887350000000     0.148325000000     0.280082500000    -1.52313    
O5       O      0.804310000000     0.153335000000     0.275145000000    -1.37916    
C1       C      0.892557500000     0.211747500000     0.341545000000     0.783376   
C2       C      0.861390000000     0.191240000000     0.319492500000    -0.126501   
C3       C      0.886055000000     0.181980000000     0.306547500000    -0.357235   
C4       C      0.855327500000     0.160247500000     0.284900000000     1.24373    
H2       H      0.817580000000     0.183042500000     0.314235000000     0.0400979  
H3       H      0.930570000000     0.189467500000     0.312095000000     0.105292   
H1       H      0.980737500000     0.243605000000     0.407665000000     0.352274   
O1       O      0.954970000000     0.120672500000     0.264962500000    -2.19455    
O2       O      0.938237500000     0.149962500000     0.471022500000    -1.13947    
O3       O      0.865390000000     0.157807500000     0.478905000000    -1.30422    
O4       O      0.887350000000     0.226675000000     0.405082500000    -1.52328    
O5       O      0.804310000000     0.221665000000     0.400145000000    -1.37924    
C1       C      0.892557500000     0.163252500000     0.466545000000     0.783277   
C2       C      0.861390000000     0.183760000000     0.444492500000    -0.126495   
C3       C      0.886055000000     0.193020000000     0.431547500000    -0.357353   
C4       C      0.855327500000     0.214752500000     0.409900000000     1.24364    
H2       H      0.817580000000     0.191957500000     0.439235000000     0.0399709  
H3       H      0.930570000000     0.185532500000     0.437095000000     0.105282   
H1       H      0.980737500000     0.131395000000     0.282665000000     0.352603   
O1       O      0.795030000000     0.245672500000     0.360037500000    -2.22352    
O2       O      0.811762500000     0.024962500000     0.403977500000    -1.13478    
O3       O      0.884610000000     0.032807500000     0.396095000000    -1.25973    
O4       O      0.862650000000     0.101675000000     0.469917500000    -1.52082    
O5       O      0.945690000000     0.096665000000     0.474855000000    -1.34614    
C1       C      0.857442500000     0.038252500000     0.408455000000     0.762892   
C2       C      0.888610000000     0.058760000000     0.430507500000    -0.126214   
C3       C      0.863945000000     0.068020000000     0.443452500000    -0.354905   
C4       C      0.894672500000     0.089752500000     0.465100000000     1.22988    
H2       H      0.932420000000     0.066957500000     0.435765000000     0.043494   
H3       H      0.819430000000     0.060532500000     0.437905000000     0.0977571  
H1       H      0.769262500000     0.006395000000     0.342335000000     0.300714   
Al1      Al     0.875000000000     0.125000000000     0.500000000000     5.88297    
Al2      Al     0.750000000000     0.125000000000     0.500000000000     5.27555    
O1       O      0.795030000000     0.129327500000     0.735037500000    -2.22335    
O2       O      0.811762500000     0.100037500000     0.528977500000    -1.17107    
O3       O      0.884610000000     0.092192500000     0.521095000000    -1.30861    
O4       O      0.862650000000     0.023325000000     0.594917500000    -1.46765    
O5       O      0.945690000000     0.028335000000     0.599855000000    -1.29485    
C1       C      0.857442500000     0.086747500000     0.533455000000     0.795221   
C2       C      0.888610000000     0.066240000000     0.555507500000    -0.142688   
C3       C      0.863945000000     0.056980000000     0.568452500000    -0.335478   
C4       C      0.894672500000     0.035247500000     0.590100000000     1.18462    
H2       H      0.932420000000     0.058042500000     0.560765000000     0.0483039  
H3       H      0.819430000000     0.064467500000     0.562905000000     0.0941859  
H1       H      0.769262500000     0.118605000000     0.717335000000     0.34475    
Al1      Al     0.875000000000     0.000000000000     0.625000000000     5.59422    
Al2      Al     0.750000000000     0.000000000000     0.625000000000     5.0119     
O1       O      0.954970000000     0.004327500000     0.639962500000    -2.13532    
O2       O      0.938237500000     0.225037500000     0.596022500000    -1.13977    
O3       O      0.865390000000     0.217192500000     0.603905000000    -1.30424    
O4       O      0.887350000000     0.148325000000     0.530082500000    -1.52305    
O5       O      0.804310000000     0.153335000000     0.525145000000    -1.37911    
C1       C      0.892557500000     0.211747500000     0.591545000000     0.783232   
C2       C      0.861390000000     0.191240000000     0.569492500000    -0.126619   
C3       C      0.886055000000     0.181980000000     0.556547500000    -0.357322   
C4       C      0.855327500000     0.160247500000     0.534900000000     1.24353    
H2       H      0.817580000000     0.183042500000     0.564235000000     0.0399935  
H3       H      0.930570000000     0.189467500000     0.562095000000     0.105168   
H1       H      0.980737500000     0.243605000000     0.657665000000     0.352071   
O1       O      0.954970000000     0.120672500000     0.514962500000    -2.19403    
O2       O      0.938237500000     0.149962500000     0.721022500000    -1.13987    
O3       O      0.865390000000     0.157807500000     0.728905000000    -1.3043     
O4       O      0.887350000000     0.226675000000     0.655082500000    -1.52328    
O5       O      0.804310000000     0.221665000000     0.650145000000    -1.37922    
C1       C      0.892557500000     0.163252500000     0.716545000000     0.78322    
C2       C      0.861390000000     0.183760000000     0.694492500000    -0.126683   
C3       C      0.886055000000     0.193020000000     0.681547500000    -0.357445   
C4       C      0.855327500000     0.214752500000     0.659900000000     1.24345    
H2       H      0.817580000000     0.191957500000     0.689235000000     0.0398654  
H3       H      0.930570000000     0.185532500000     0.687095000000     0.105084   
H1       H      0.980737500000     0.131395000000     0.532665000000     0.352483   
O1       O      0.795030000000     0.245672500000     0.610037500000    -2.22336    
O2       O      0.811762500000     0.024962500000     0.653977500000    -1.13478    
O3       O      0.884610000000     0.032807500000     0.646095000000    -1.25976    
O4       O      0.862650000000     0.101675000000     0.719917500000    -1.52088    
O5       O      0.945690000000     0.096665000000     0.724855000000    -1.34659    
C1       C      0.857442500000     0.038252500000     0.658455000000     0.762717   
C2       C      0.888610000000     0.058760000000     0.680507500000    -0.1263     
C3       C      0.863945000000     0.068020000000     0.693452500000    -0.35511    
C4       C      0.894672500000     0.089752500000     0.715100000000     1.22987    
H2       H      0.932420000000     0.066957500000     0.685765000000     0.043296   
H3       H      0.819430000000     0.060532500000     0.687905000000     0.0976546  
H1       H      0.769262500000     0.006395000000     0.592335000000     0.300601   
Al1      Al     0.875000000000     0.125000000000     0.750000000000     5.88238    
Al2      Al     0.750000000000     0.125000000000     0.750000000000     5.27485    
O1       O      0.795030000000     0.129327500000     0.985037500000    -2.09523    
O2       O      0.811762500000     0.100037500000     0.778977500000    -1.17103    
O3       O      0.884610000000     0.092192500000     0.771095000000    -1.30866    
O4       O      0.862650000000     0.023325000000     0.844917500000    -1.46847    
O5       O      0.945690000000     0.028335000000     0.849855000000    -1.2963     
C1       C      0.857442500000     0.086747500000     0.783455000000     0.794998   
C2       C      0.888610000000     0.066240000000     0.805507500000    -0.142607   
C3       C      0.863945000000     0.056980000000     0.818452500000    -0.335925   
C4       C      0.894672500000     0.035247500000     0.840100000000     1.18547    
H2       H      0.932420000000     0.058042500000     0.810765000000     0.0480023  
H3       H      0.819430000000     0.064467500000     0.812905000000     0.094191   
H1       H      0.769262500000     0.118605000000     0.967335000000     0.333792   
Al1      Al     0.875000000000     0.000000000000     0.875000000000     5.59693    
Al2      Al     0.750000000000     0.000000000000     0.875000000000     5.01446    
O1       O      0.954970000000     0.004327500000     0.889962500000    -2.13663    
O2       O      0.938237500000     0.225037500000     0.846022500000    -1.14109    
O3       O      0.865390000000     0.217192500000     0.853905000000    -1.30488    
O4       O      0.887350000000     0.148325000000     0.780082500000    -1.52306    
O5       O      0.804310000000     0.153335000000     0.775145000000    -1.37907    
C1       C      0.892557500000     0.211747500000     0.841545000000     0.783735   
C2       C      0.861390000000     0.191240000000     0.819492500000    -0.126965   
C3       C      0.886055000000     0.181980000000     0.806547500000    -0.357294   
C4       C      0.855327500000     0.160247500000     0.784900000000     1.24331    
H2       H      0.817580000000     0.183042500000     0.814235000000     0.0399787  
H3       H      0.930570000000     0.189467500000     0.812095000000     0.104896   
H1       H      0.980737500000     0.243605000000     0.907665000000     0.354378   
O1       O      0.954970000000     0.120672500000     0.764962500000    -2.19428    
O2       O      0.938237500000     0.149962500000     0.971022500000    -1.07781    
O3       O      0.865390000000     0.157807500000     0.978905000000    -1.23117    
O4       O      0.887350000000     0.226675000000     0.905082500000    -1.52252    
O5       O      0.804310000000     0.221665000000     0.900145000000    -1.37935    
C1       C      0.892557500000     0.163252500000     0.966545000000     0.753903   
C2       C      0.861390000000     0.183760000000     0.944492500000    -0.111691   
C3       C      0.886055000000     0.193020000000     0.931547500000    -0.36116    
C4       C      0.855327500000     0.214752500000     0.909900000000     1.24676    
H2       H      0.817580000000     0.191957500000     0.939235000000     0.0396136  
H3       H      0.930570000000     0.185532500000     0.937095000000     0.109656   
H1       H      0.980737500000     0.131395000000     0.782665000000     0.35224    
O1       O      0.795030000000     0.245672500000     0.860037500000    -2.22442    
O2       O      0.811762500000     0.024962500000     0.903977500000    -1.13439    
O3       O      0.884610000000     0.032807500000     0.896095000000    -1.25987    
O4       O      0.862650000000     0.101675000000     0.969917500000    -1.44178    
O5       O      0.945690000000     0.096665000000     0.974855000000    -1.27184    
C1       C      0.857442500000     0.038252500000     0.908455000000     0.767226   
C2       C      0.888610000000     0.058760000000     0.930507500000    -0.133711   
C3       C      0.863945000000     0.068020000000     0.943452500000    -0.332258   
C4       C      0.894672500000     0.089752500000     0.965100000000     1.18114    
H2       H      0.932420000000     0.066957500000     0.935765000000     0.0495706  
H3       H      0.819430000000     0.060532500000     0.937905000000     0.0966149  
H1       H      0.769262500000     0.006395000000     0.842335000000     0.300587   
Al1      Al     0.875000000000     0.375000000000     0.000000000000     5.58647    
Al2      Al     0.750000000000     0.375000000000     0.000000000000     5.00367    
O1       O      0.795030000000     0.379327500000     0.235037500000    -2.22357    
O2       O      0.811762500000     0.350037500000     0.028977500000    -1.12825    
O3       O      0.884610000000     0.342192500000     0.021095000000    -1.26302    
O4       O      0.862650000000     0.273325000000     0.094917500000    -1.52198    
O5       O      0.945690000000     0.278335000000     0.099855000000    -1.34675    
C1       C      0.857442500000     0.336747500000     0.033455000000     0.761847   
C2       C      0.888610000000     0.316240000000     0.055507500000    -0.125231   
C3       C      0.863945000000     0.306980000000     0.068452500000    -0.355328   
C4       C      0.894672500000     0.285247500000     0.090100000000     1.231      
H2       H      0.932420000000     0.308042500000     0.060765000000     0.0427757  
H3       H      0.819430000000     0.314467500000     0.062905000000     0.0984741  
H1       H      0.769262500000     0.368605000000     0.217335000000     0.345057   
Al1      Al     0.875000000000     0.250000000000     0.125000000000     5.88387    
Al2      Al     0.750000000000     0.250000000000     0.125000000000     5.27709    
O1       O      0.954970000000     0.254327500000     0.139962500000    -2.19469    
O2       O      0.938237500000     0.475037500000     0.096022500000    -1.14228    
O3       O      0.865390000000     0.467192500000     0.103905000000    -1.30537    
O4       O      0.887350000000     0.398325000000     0.030082500000    -1.46802    
O5       O      0.804310000000     0.403335000000     0.025145000000    -1.33281    
C1       C      0.892557500000     0.461747500000     0.091545000000     0.785774   
C2       C      0.861390000000     0.441240000000     0.069492500000    -0.135509   
C3       C      0.886055000000     0.431980000000     0.056547500000    -0.343389   
C4       C      0.855327500000     0.410247500000     0.034900000000     1.19518    
H2       H      0.817580000000     0.433042500000     0.064235000000     0.0416035  
H3       H      0.930570000000     0.439467500000     0.062095000000     0.0998864  
H1       H      0.980737500000     0.493605000000     0.157665000000     0.352213   
O1       O      0.954970000000     0.370672500000     0.014962500000    -2.11006    
O2       O      0.938237500000     0.399962500000     0.221022500000    -1.13997    
O3       O      0.865390000000     0.407807500000     0.228905000000    -1.30439    
O4       O      0.887350000000     0.476675000000     0.155082500000    -1.52322    
O5       O      0.804310000000     0.471665000000     0.150145000000    -1.37923    
C1       C      0.892557500000     0.413252500000     0.216545000000     0.783378   
C2       C      0.861390000000     0.433760000000     0.194492500000    -0.126617   
C3       C      0.886055000000     0.443020000000     0.181547500000    -0.357303   
C4       C      0.855327500000     0.464752500000     0.159900000000     1.24362    
H2       H      0.817580000000     0.441957500000     0.189235000000     0.0399936  
H3       H      0.930570000000     0.435532500000     0.187095000000     0.10521    
H1       H      0.980737500000     0.381395000000     0.032665000000     0.343781   
O1       O      0.795030000000     0.495672500000     0.110037500000    -2.22355    
O2       O      0.811762500000     0.274962500000     0.153977500000    -1.17001    
O3       O      0.884610000000     0.282807500000     0.146095000000    -1.3068     
O4       O      0.862650000000     0.351675000000     0.219917500000    -1.52009    
O5       O      0.945690000000     0.346665000000     0.224855000000    -1.34501    
C1       C      0.857442500000     0.288252500000     0.158455000000     0.793718   
C2       C      0.888610000000     0.308760000000     0.180507500000    -0.134062   
C3       C      0.863945000000     0.318020000000     0.193452500000    -0.348947   
C4       C      0.894672500000     0.339752500000     0.215100000000     1.22911    
H2       H      0.932420000000     0.316957500000     0.185765000000     0.047073   
H3       H      0.819430000000     0.310532500000     0.187905000000     0.0982536  
H1       H      0.769262500000     0.256395000000     0.092335000000     0.343608   
Al1      Al     0.875000000000     0.375000000000     0.250000000000     5.88333    
Al2      Al     0.750000000000     0.375000000000     0.250000000000     5.27605    
O1       O      0.795030000000     0.379327500000     0.485037500000    -2.22336    
O2       O      0.811762500000     0.350037500000     0.278977500000    -1.17002    
O3       O      0.884610000000     0.342192500000     0.271095000000    -1.30695    
O4       O      0.862650000000     0.273325000000     0.344917500000    -1.52014    
O5       O      0.945690000000     0.278335000000     0.349855000000    -1.34484    
C1       C      0.857442500000     0.336747500000     0.283455000000     0.793537   
C2       C      0.888610000000     0.316240000000     0.305507500000    -0.134236   
C3       C      0.863945000000     0.306980000000     0.318452500000    -0.349043   
C4       C      0.894672500000     0.285247500000     0.340100000000     1.22893    
H2       H      0.932420000000     0.308042500000     0.310765000000     0.0469609  
H3       H      0.819430000000     0.314467500000     0.312905000000     0.0980886  
H1       H      0.769262500000     0.368605000000     0.467335000000     0.344832   
Al1      Al     0.875000000000     0.250000000000     0.375000000000     5.88321    
Al2      Al     0.750000000000     0.250000000000     0.375000000000     5.27609    
O1       O      0.954970000000     0.254327500000     0.389962500000    -2.19395    
O2       O      0.938237500000     0.475037500000     0.346022500000    -1.13975    
O3       O      0.865390000000     0.467192500000     0.353905000000    -1.30432    
O4       O      0.887350000000     0.398325000000     0.280082500000    -1.52337    
O5       O      0.804310000000     0.403335000000     0.275145000000    -1.37936    
C1       C      0.892557500000     0.461747500000     0.341545000000     0.783128   
C2       C      0.861390000000     0.441240000000     0.319492500000    -0.126688   
C3       C      0.886055000000     0.431980000000     0.306547500000    -0.357513   
C4       C      0.855327500000     0.410247500000     0.284900000000     1.24355    
H2       H      0.817580000000     0.433042500000     0.314235000000     0.0398412  
H3       H      0.930570000000     0.439467500000     0.312095000000     0.105093   
H1       H      0.980737500000     0.493605000000     0.407665000000     0.352129   
O1       O      0.954970000000     0.370672500000     0.264962500000    -2.19418    
O2       O      0.938237500000     0.399962500000     0.471022500000    -1.13972    
O3       O      0.865390000000     0.407807500000     0.478905000000    -1.30435    
O4       O      0.887350000000     0.476675000000     0.405082500000    -1.52327    
O5       O      0.804310000000     0.471665000000     0.400145000000    -1.37927    
C1       C      0.892557500000     0.413252500000     0.466545000000     0.783069   
C2       C      0.861390000000     0.433760000000     0.444492500000    -0.126748   
C3       C      0.886055000000     0.443020000000     0.431547500000    -0.357543   
C4       C      0.855327500000     0.464752500000     0.409900000000     1.24337    
H2       H      0.817580000000     0.441957500000     0.439235000000     0.0397833  
H3       H      0.930570000000     0.435532500000     0.437095000000     0.105045   
H1       H      0.980737500000     0.381395000000     0.282665000000     0.352213   
O1       O      0.795030000000     0.495672500000     0.360037500000    -2.22336    
O2       O      0.811762500000     0.274962500000     0.403977500000    -1.17006    
O3       O      0.884610000000     0.282807500000     0.396095000000    -1.30699    
O4       O      0.862650000000     0.351675000000     0.469917500000    -1.52004    
O5       O      0.945690000000     0.346665000000     0.474855000000    -1.34468    
C1       C      0.857442500000     0.288252500000     0.408455000000     0.793501   
C2       C      0.888610000000     0.308760000000     0.430507500000    -0.134313   
C3       C      0.863945000000     0.318020000000     0.443452500000    -0.349055   
C4       C      0.894672500000     0.339752500000     0.465100000000     1.22873    
H2       H      0.932420000000     0.316957500000     0.435765000000     0.0469147  
H3       H      0.819430000000     0.310532500000     0.437905000000     0.0980287  
H1       H      0.769262500000     0.256395000000     0.342335000000     0.34494    
Al1      Al     0.875000000000     0.375000000000     0.500000000000     5.88239    
Al2      Al     0.750000000000     0.375000000000     0.500000000000     5.27528    
O1       O      0.795030000000     0.379327500000     0.735037500000    -2.22322    
O2       O      0.811762500000     0.350037500000     0.528977500000    -1.17       
O3       O      0.884610000000     0.342192500000     0.521095000000    -1.30691    
O4       O      0.862650000000     0.273325000000     0.594917500000    -1.52011    
O5       O      0.945690000000     0.278335000000     0.599855000000    -1.34488    
C1       C      0.857442500000     0.336747500000     0.533455000000     0.793364   
C2       C      0.888610000000     0.316240000000     0.555507500000    -0.134335   
C3       C      0.863945000000     0.306980000000     0.568452500000    -0.349155   
C4       C      0.894672500000     0.285247500000     0.590100000000     1.22877    
H2       H      0.932420000000     0.308042500000     0.560765000000     0.0468413  
H3       H      0.819430000000     0.314467500000     0.562905000000     0.0979804  
H1       H      0.769262500000     0.368605000000     0.717335000000     0.344722   
Al1      Al     0.875000000000     0.250000000000     0.625000000000     5.88254    
Al2      Al     0.750000000000     0.250000000000     0.625000000000     5.27545    
O1       O      0.954970000000     0.254327500000     0.639962500000    -2.19384    
O2       O      0.938237500000     0.475037500000     0.596022500000    -1.13979    
O3       O      0.865390000000     0.467192500000     0.603905000000    -1.30432    
O4       O      0.887350000000     0.398325000000     0.530082500000    -1.52329    
O5       O      0.804310000000     0.403335000000     0.525145000000    -1.37931    
C1       C      0.892557500000     0.461747500000     0.591545000000     0.782983   
C2       C      0.861390000000     0.441240000000     0.569492500000    -0.126807   
C3       C      0.886055000000     0.431980000000     0.556547500000    -0.3576     
C4       C      0.855327500000     0.410247500000     0.534900000000     1.24334    
H2       H      0.817580000000     0.433042500000     0.564235000000     0.0397366  
H3       H      0.930570000000     0.439467500000     0.562095000000     0.104969   
H1       H      0.980737500000     0.493605000000     0.657665000000     0.351926   
O1       O      0.954970000000     0.370672500000     0.514962500000    -2.19366    
O2       O      0.938237500000     0.399962500000     0.721022500000    -1.14012    
O3       O      0.865390000000     0.407807500000     0.728905000000    -1.30444    
O4       O      0.887350000000     0.476675000000     0.655082500000    -1.52327    
O5       O      0.804310000000     0.471665000000     0.650145000000    -1.37926    
C1       C      0.892557500000     0.413252500000     0.716545000000     0.783012   
C2       C      0.861390000000     0.433760000000     0.694492500000    -0.126936   
C3       C      0.886055000000     0.443020000000     0.681547500000    -0.357635   
C4       C      0.855327500000     0.464752500000     0.659900000000     1.24318    
H2       H      0.817580000000     0.441957500000     0.689235000000     0.0396778  
H3       H      0.930570000000     0.435532500000     0.687095000000     0.104848   
H1       H      0.980737500000     0.381395000000     0.532665000000     0.352093   
O1       O      0.795030000000     0.495672500000     0.610037500000    -2.2232     
O2       O      0.811762500000     0.274962500000     0.653977500000    -1.17007    
O3       O      0.884610000000     0.282807500000     0.646095000000    -1.30701    
O4       O      0.862650000000     0.351675000000     0.719917500000    -1.5201     
O5       O      0.945690000000     0.346665000000     0.724855000000    -1.34512    
C1       C      0.857442500000     0.288252500000     0.658455000000     0.793328   
C2       C      0.888610000000     0.308760000000     0.680507500000    -0.1344     
C3       C      0.863945000000     0.318020000000     0.693452500000    -0.34926    
C4       C      0.894672500000     0.339752500000     0.715100000000     1.22872    
H2       H      0.932420000000     0.316957500000     0.685765000000     0.0467167  
H3       H      0.819430000000     0.310532500000     0.687905000000     0.0979257  
H1       H      0.769262500000     0.256395000000     0.592335000000     0.34483    
Al1      Al     0.875000000000     0.375000000000     0.750000000000     5.8818     
Al2      Al     0.750000000000     0.375000000000     0.750000000000     5.27459    
O1       O      0.795030000000     0.379327500000     0.985037500000    -2.09502    
O2       O      0.811762500000     0.350037500000     0.778977500000    -1.16996    
O3       O      0.884610000000     0.342192500000     0.771095000000    -1.30696    
O4       O      0.862650000000     0.273325000000     0.844917500000    -1.52091    
O5       O      0.945690000000     0.278335000000     0.849855000000    -1.34631    
C1       C      0.857442500000     0.336747500000     0.783455000000     0.793142   
C2       C      0.888610000000     0.316240000000     0.805507500000    -0.134257   
C3       C      0.863945000000     0.306980000000     0.818452500000    -0.349594   
C4       C      0.894672500000     0.285247500000     0.840100000000     1.2296     
H2       H      0.932420000000     0.308042500000     0.810765000000     0.0465413  
H3       H      0.819430000000     0.314467500000     0.812905000000     0.0979839  
H1       H      0.769262500000     0.368605000000     0.967335000000     0.333758   
Al1      Al     0.875000000000     0.250000000000     0.875000000000     5.88511    
Al2      Al     0.750000000000     0.250000000000     0.875000000000     5.27787    
O1       O      0.954970000000     0.254327500000     0.889962500000    -2.19512    
O2       O      0.938237500000     0.475037500000     0.846022500000    -1.14112    
O3       O      0.865390000000     0.467192500000     0.853905000000    -1.30496    
O4       O      0.887350000000     0.398325000000     0.780082500000    -1.5233     
O5       O      0.804310000000     0.403335000000     0.775145000000    -1.37927    
C1       C      0.892557500000     0.461747500000     0.841545000000     0.783486   
C2       C      0.861390000000     0.441240000000     0.819492500000    -0.127152   
C3       C      0.886055000000     0.431980000000     0.806547500000    -0.357572   
C4       C      0.855327500000     0.410247500000     0.784900000000     1.24312    
H2       H      0.817580000000     0.433042500000     0.814235000000     0.039722   
H3       H      0.930570000000     0.439467500000     0.812095000000     0.104696   
H1       H      0.980737500000     0.493605000000     0.907665000000     0.354234   
O1       O      0.954970000000     0.370672500000     0.764962500000    -2.19392    
O2       O      0.938237500000     0.399962500000     0.971022500000    -1.07802    
O3       O      0.865390000000     0.407807500000     0.978905000000    -1.23126    
O4       O      0.887350000000     0.476675000000     0.905082500000    -1.52251    
O5       O      0.804310000000     0.471665000000     0.900145000000    -1.37939    
C1       C      0.892557500000     0.413252500000     0.966545000000     0.753676   
C2       C      0.861390000000     0.433760000000     0.944492500000    -0.111935   
C3       C      0.886055000000     0.443020000000     0.931547500000    -0.361354   
C4       C      0.855327500000     0.464752500000     0.909900000000     1.24649    
H2       H      0.817580000000     0.441957500000     0.939235000000     0.0394249  
H3       H      0.930570000000     0.435532500000     0.937095000000     0.109422   
H1       H      0.980737500000     0.381395000000     0.782665000000     0.351851   
O1       O      0.795030000000     0.495672500000     0.860037500000    -2.22426    
O2       O      0.811762500000     0.274962500000     0.903977500000    -1.16967    
O3       O      0.884610000000     0.282807500000     0.896095000000    -1.3071     
O4       O      0.862650000000     0.351675000000     0.969917500000    -1.44095    
O5       O      0.945690000000     0.346665000000     0.974855000000    -1.27033    
C1       C      0.857442500000     0.288252500000     0.908455000000     0.797823   
C2       C      0.888610000000     0.308760000000     0.930507500000    -0.141812   
C3       C      0.863945000000     0.318020000000     0.943452500000    -0.326396   
C4       C      0.894672500000     0.339752500000     0.965100000000     1.17995    
H2       H      0.932420000000     0.316957500000     0.935765000000     0.0529934  
H3       H      0.819430000000     0.310532500000     0.937905000000     0.0968848  
H1       H      0.769262500000     0.256395000000     0.842335000000     0.344794   
Al1      Al     0.875000000000     0.625000000000     0.000000000000     5.58582    
Al2      Al     0.750000000000     0.625000000000     0.000000000000     5.00303    
O1       O      0.795030000000     0.629327500000     0.235037500000    -2.22342    
O2       O      0.811762500000     0.600037500000     0.028977500000    -1.12824    
O3       O      0.884610000000     0.592192500000     0.021095000000    -1.26302    
O4       O      0.862650000000     0.523325000000     0.094917500000    -1.52192    
O5       O      0.945690000000     0.528335000000     0.099855000000    -1.3467     
C1       C      0.857442500000     0.586747500000     0.033455000000     0.761704   
C2       C      0.888610000000     0.566240000000     0.055507500000    -0.125337   
C3       C      0.863945000000     0.556980000000     0.068452500000    -0.355414   
C4       C      0.894672500000     0.535247500000     0.090100000000     1.23081    
H2       H      0.932420000000     0.558042500000     0.060765000000     0.0426698  
H3       H      0.819430000000     0.564467500000     0.062905000000     0.0983639  
H1       H      0.769262500000     0.618605000000     0.217335000000     0.34495    
Al1      Al     0.875000000000     0.500000000000     0.125000000000     5.88309    
Al2      Al     0.750000000000     0.500000000000     0.125000000000     5.27629    
O1       O      0.954970000000     0.504327500000     0.139962500000    -2.1945     
O2       O      0.938237500000     0.725037500000     0.096022500000    -1.1423     
O3       O      0.865390000000     0.717192500000     0.103905000000    -1.30537    
O4       O      0.887350000000     0.648325000000     0.030082500000    -1.468      
O5       O      0.804310000000     0.653335000000     0.025145000000    -1.33279    
C1       C      0.892557500000     0.711747500000     0.091545000000     0.78563    
C2       C      0.861390000000     0.691240000000     0.069492500000    -0.135619   
C3       C      0.886055000000     0.681980000000     0.056547500000    -0.343485   
C4       C      0.855327500000     0.660247500000     0.034900000000     1.19501    
H2       H      0.817580000000     0.683042500000     0.064235000000     0.0414966  
H3       H      0.930570000000     0.689467500000     0.062095000000     0.0997698  
H1       H      0.980737500000     0.743605000000     0.157665000000     0.352087   
O1       O      0.954970000000     0.620672500000     0.014962500000    -2.10992    
O2       O      0.938237500000     0.649962500000     0.221022500000    -1.13998    
O3       O      0.865390000000     0.657807500000     0.228905000000    -1.3044     
O4       O      0.887350000000     0.726675000000     0.155082500000    -1.5232     
O5       O      0.804310000000     0.721665000000     0.150145000000    -1.37922    
C1       C      0.892557500000     0.663252500000     0.216545000000     0.783234   
C2       C      0.861390000000     0.683760000000     0.194492500000    -0.126724   
C3       C      0.886055000000     0.693020000000     0.181547500000    -0.357403   
C4       C      0.855327500000     0.714752500000     0.159900000000     1.24345    
H2       H      0.817580000000     0.691957500000     0.189235000000     0.039883   
H3       H      0.930570000000     0.685532500000     0.187095000000     0.105096   
H1       H      0.980737500000     0.631395000000     0.032665000000     0.34367    
O1       O      0.795030000000     0.745672500000     0.110037500000    -2.22339    
O2       O      0.811762500000     0.524962500000     0.153977500000    -1.16998    
O3       O      0.884610000000     0.532807500000     0.146095000000    -1.30678    
O4       O      0.862650000000     0.601675000000     0.219917500000    -1.52006    
O5       O      0.945690000000     0.596665000000     0.224855000000    -1.345      
C1       C      0.857442500000     0.538252500000     0.158455000000     0.79356    
C2       C      0.888610000000     0.558760000000     0.180507500000    -0.134158   
C3       C      0.863945000000     0.568020000000     0.193452500000    -0.349044   
C4       C      0.894672500000     0.589752500000     0.215100000000     1.22895    
H2       H      0.932420000000     0.566957500000     0.185765000000     0.046966   
H3       H      0.819430000000     0.560532500000     0.187905000000     0.098146   
H1       H      0.769262500000     0.506395000000     0.092335000000     0.343491   
Al1      Al     0.875000000000     0.625000000000     0.250000000000     5.88269    
Al2      Al     0.750000000000     0.625000000000     0.250000000000     5.27542    
O1       O      0.795030000000     0.629327500000     0.485037500000    -2.22322    
O2       O      0.811762500000     0.600037500000     0.278977500000    -1.17002    
O3       O      0.884610000000     0.592192500000     0.271095000000    -1.30695    
O4       O      0.862650000000     0.523325000000     0.344917500000    -1.52008    
O5       O      0.945690000000     0.528335000000     0.349855000000    -1.34479    
C1       C      0.857442500000     0.586747500000     0.283455000000     0.793396   
C2       C      0.888610000000     0.566240000000     0.305507500000    -0.134342   
C3       C      0.863945000000     0.556980000000     0.318452500000    -0.349129   
C4       C      0.894672500000     0.535247500000     0.340100000000     1.22874    
H2       H      0.932420000000     0.558042500000     0.310765000000     0.0468557  
H3       H      0.819430000000     0.564467500000     0.312905000000     0.0979788  
H1       H      0.769262500000     0.618605000000     0.467335000000     0.344725   
Al1      Al     0.875000000000     0.500000000000     0.375000000000     5.88244    
Al2      Al     0.750000000000     0.500000000000     0.375000000000     5.27529    
O1       O      0.954970000000     0.504327500000     0.389962500000    -2.19375    
O2       O      0.938237500000     0.725037500000     0.346022500000    -1.13978    
O3       O      0.865390000000     0.717192500000     0.353905000000    -1.30432    
O4       O      0.887350000000     0.648325000000     0.280082500000    -1.52335    
O5       O      0.804310000000     0.653335000000     0.275145000000    -1.37934    
C1       C      0.892557500000     0.711747500000     0.341545000000     0.782982   
C2       C      0.861390000000     0.691240000000     0.319492500000    -0.126798   
C3       C      0.886055000000     0.681980000000     0.306547500000    -0.35761    
C4       C      0.855327500000     0.660247500000     0.284900000000     1.24338    
H2       H      0.817580000000     0.683042500000     0.314235000000     0.0397339  
H3       H      0.930570000000     0.689467500000     0.312095000000     0.104976   
H1       H      0.980737500000     0.743605000000     0.407665000000     0.352003   
O1       O      0.954970000000     0.620672500000     0.264962500000    -2.19404    
O2       O      0.938237500000     0.649962500000     0.471022500000    -1.13973    
O3       O      0.865390000000     0.657807500000     0.478905000000    -1.30436    
O4       O      0.887350000000     0.726675000000     0.405082500000    -1.52325    
O5       O      0.804310000000     0.721665000000     0.400145000000    -1.37926    
C1       C      0.892557500000     0.663252500000     0.466545000000     0.782925   
C2       C      0.861390000000     0.683760000000     0.444492500000    -0.126855   
C3       C      0.886055000000     0.693020000000     0.431547500000    -0.357643   
C4       C      0.855327500000     0.714752500000     0.409900000000     1.2432     
H2       H      0.817580000000     0.691957500000     0.439235000000     0.0396727  
H3       H      0.930570000000     0.685532500000     0.437095000000     0.104931   
H1       H      0.980737500000     0.631395000000     0.282665000000     0.352102   
O1       O      0.795030000000     0.745672500000     0.360037500000    -2.2232     
O2       O      0.811762500000     0.524962500000     0.403977500000    -1.17003    
O3       O      0.884610000000     0.532807500000     0.396095000000    -1.30696    
O4       O      0.862650000000     0.601675000000     0.469917500000    -1.52001    
O5       O      0.945690000000     0.596665000000     0.474855000000    -1.34466    
C1       C      0.857442500000     0.538252500000     0.408455000000     0.793342   
C2       C      0.888610000000     0.558760000000     0.430507500000    -0.134409   
C3       C      0.863945000000     0.568020000000     0.443452500000    -0.349152   
C4       C      0.894672500000     0.589752500000     0.465100000000     1.22856    
H2       H      0.932420000000     0.566957500000     0.435765000000     0.0468076  
H3       H      0.819430000000     0.560532500000     0.437905000000     0.0979209  
H1       H      0.769262500000     0.506395000000     0.342335000000     0.344823   
Al1      Al     0.875000000000     0.625000000000     0.500000000000     5.88176    
Al2      Al     0.750000000000     0.625000000000     0.500000000000     5.27465    
O1       O      0.795030000000     0.629327500000     0.735037500000    -2.22307    
O2       O      0.811762500000     0.600037500000     0.528977500000    -1.17       
O3       O      0.884610000000     0.592192500000     0.521095000000    -1.30691    
O4       O      0.862650000000     0.523325000000     0.594917500000    -1.52006    
O5       O      0.945690000000     0.528335000000     0.599855000000    -1.34483    
C1       C      0.857442500000     0.586747500000     0.533455000000     0.793223   
C2       C      0.888610000000     0.566240000000     0.555507500000    -0.134441   
C3       C      0.863945000000     0.556980000000     0.568452500000    -0.34924    
C4       C      0.894672500000     0.535247500000     0.590100000000     1.22858    
H2       H      0.932420000000     0.558042500000     0.560765000000     0.0467361  
H3       H      0.819430000000     0.564467500000     0.562905000000     0.0978704  
H1       H      0.769262500000     0.618605000000     0.717335000000     0.344615   
Al1      Al     0.875000000000     0.500000000000     0.625000000000     5.88177    
Al2      Al     0.750000000000     0.500000000000     0.625000000000     5.27465    
O1       O      0.954970000000     0.504327500000     0.639962500000    -2.19364    
O2       O      0.938237500000     0.725037500000     0.596022500000    -1.13982    
O3       O      0.865390000000     0.717192500000     0.603905000000    -1.30433    
O4       O      0.887350000000     0.648325000000     0.530082500000    -1.52327    
O5       O      0.804310000000     0.653335000000     0.525145000000    -1.3793     
C1       C      0.892557500000     0.711747500000     0.591545000000     0.782837   
C2       C      0.861390000000     0.691240000000     0.569492500000    -0.126917   
C3       C      0.886055000000     0.681980000000     0.556547500000    -0.357697   
C4       C      0.855327500000     0.660247500000     0.534900000000     1.24317    
H2       H      0.817580000000     0.683042500000     0.564235000000     0.0396294  
H3       H      0.930570000000     0.689467500000     0.562095000000     0.104853   
H1       H      0.980737500000     0.743605000000     0.657665000000     0.3518     
O1       O      0.954970000000     0.620672500000     0.514962500000    -2.19352    
O2       O      0.938237500000     0.649962500000     0.721022500000    -1.14013    
O3       O      0.865390000000     0.657807500000     0.728905000000    -1.30445    
O4       O      0.887350000000     0.726675000000     0.655082500000    -1.52326    
O5       O      0.804310000000     0.721665000000     0.650145000000    -1.37925    
C1       C      0.892557500000     0.663252500000     0.716545000000     0.782867   
C2       C      0.861390000000     0.683760000000     0.694492500000    -0.127042   
C3       C      0.886055000000     0.693020000000     0.681547500000    -0.357735   
C4       C      0.855327500000     0.714752500000     0.659900000000     1.24301    
H2       H      0.817580000000     0.691957500000     0.689235000000     0.0395672  
H3       H      0.930570000000     0.685532500000     0.687095000000     0.104734   
H1       H      0.980737500000     0.631395000000     0.532665000000     0.351982   
O1       O      0.795030000000     0.745672500000     0.610037500000    -2.22305    
O2       O      0.811762500000     0.524962500000     0.653977500000    -1.17004    
O3       O      0.884610000000     0.532807500000     0.646095000000    -1.30699    
O4       O      0.862650000000     0.601675000000     0.719917500000    -1.52007    
O5       O      0.945690000000     0.596665000000     0.724855000000    -1.34511    
C1       C      0.857442500000     0.538252500000     0.658455000000     0.793169   
C2       C      0.888610000000     0.558760000000     0.680507500000    -0.134497   
C3       C      0.863945000000     0.568020000000     0.693452500000    -0.349357   
C4       C      0.894672500000     0.589752500000     0.715100000000     1.22855    
H2       H      0.932420000000     0.566957500000     0.685765000000     0.0466098  
H3       H      0.819430000000     0.560532500000     0.687905000000     0.097818   
H1       H      0.769262500000     0.506395000000     0.592335000000     0.344713   
Al1      Al     0.875000000000     0.625000000000     0.750000000000     5.88117    
Al2      Al     0.750000000000     0.625000000000     0.750000000000     5.27396    
O1       O      0.795030000000     0.629327500000     0.985037500000    -2.09487    
O2       O      0.811762500000     0.600037500000     0.778977500000    -1.16996    
O3       O      0.884610000000     0.592192500000     0.771095000000    -1.30696    
O4       O      0.862650000000     0.523325000000     0.844917500000    -1.52085    
O5       O      0.945690000000     0.528335000000     0.849855000000    -1.34625    
C1       C      0.857442500000     0.586747500000     0.783455000000     0.793002   
C2       C      0.888610000000     0.566240000000     0.805507500000    -0.134363   
C3       C      0.863945000000     0.556980000000     0.818452500000    -0.349679   
C4       C      0.894672500000     0.535247500000     0.840100000000     1.22941    
H2       H      0.932420000000     0.558042500000     0.810765000000     0.0464362  
H3       H      0.819430000000     0.564467500000     0.812905000000     0.097874   
H1       H      0.769262500000     0.618605000000     0.967335000000     0.333651   
Al1      Al     0.875000000000     0.500000000000     0.875000000000     5.88433    
Al2      Al     0.750000000000     0.500000000000     0.875000000000     5.27707    
O1       O      0.954970000000     0.504327500000     0.889962500000    -2.19493    
O2       O      0.938237500000     0.725037500000     0.846022500000    -1.14114    
O3       O      0.865390000000     0.717192500000     0.853905000000    -1.30497    
O4       O      0.887350000000     0.648325000000     0.780082500000    -1.52328    
O5       O      0.804310000000     0.653335000000     0.775145000000    -1.37926    
C1       C      0.892557500000     0.711747500000     0.841545000000     0.78334    
C2       C      0.861390000000     0.691240000000     0.819492500000    -0.127262   
C3       C      0.886055000000     0.681980000000     0.806547500000    -0.357669   
C4       C      0.855327500000     0.660247500000     0.784900000000     1.24295    
H2       H      0.817580000000     0.683042500000     0.814235000000     0.0396148  
H3       H      0.930570000000     0.689467500000     0.812095000000     0.10458    
H1       H      0.980737500000     0.743605000000     0.907665000000     0.354107   
O1       O      0.954970000000     0.620672500000     0.764962500000    -2.19377    
O2       O      0.938237500000     0.649962500000     0.971022500000    -1.07803    
O3       O      0.865390000000     0.657807500000     0.978905000000    -1.23127    
O4       O      0.887350000000     0.726675000000     0.905082500000    -1.52249    
O5       O      0.804310000000     0.721665000000     0.900145000000    -1.37938    
C1       C      0.892557500000     0.663252500000     0.966545000000     0.75353    
C2       C      0.861390000000     0.683760000000     0.944492500000    -0.112042   
C3       C      0.886055000000     0.693020000000     0.931547500000    -0.361454   
C4       C      0.855327500000     0.714752500000     0.909900000000     1.24632    
H2       H      0.817580000000     0.691957500000     0.939235000000     0.0393137  
H3       H      0.930570000000     0.685532500000     0.937095000000     0.109308   
H1       H      0.980737500000     0.631395000000     0.782665000000     0.35174    
O1       O      0.795030000000     0.745672500000     0.860037500000    -2.2241     
O2       O      0.811762500000     0.524962500000     0.903977500000    -1.16964    
O3       O      0.884610000000     0.532807500000     0.896095000000    -1.30708    
O4       O      0.862650000000     0.601675000000     0.969917500000    -1.44092    
O5       O      0.945690000000     0.596665000000     0.974855000000    -1.27031    
C1       C      0.857442500000     0.538252500000     0.908455000000     0.797665   
C2       C      0.888610000000     0.558760000000     0.930507500000    -0.141908   
C3       C      0.863945000000     0.568020000000     0.943452500000    -0.326493   
C4       C      0.894672500000     0.589752500000     0.965100000000     1.17979    
H2       H      0.932420000000     0.566957500000     0.935765000000     0.0528869  
H3       H      0.819430000000     0.560532500000     0.937905000000     0.0967773  
H1       H      0.769262500000     0.506395000000     0.842335000000     0.344677   
Al1      Al     0.875000000000     0.875000000000     0.000000000000     5.58801    
Al2      Al     0.750000000000     0.875000000000     0.000000000000     5.00622    
O1       O      0.795030000000     0.879327500000     0.235037500000    -2.22366    
O2       O      0.811762500000     0.850037500000     0.028977500000    -1.12895    
O3       O      0.884610000000     0.842192500000     0.021095000000    -1.26359    
O4       O      0.862650000000     0.773325000000     0.094917500000    -1.52188    
O5       O      0.945690000000     0.778335000000     0.099855000000    -1.34666    
C1       C      0.857442500000     0.836747500000     0.033455000000     0.761919   
C2       C      0.888610000000     0.816240000000     0.055507500000    -0.125526   
C3       C      0.863945000000     0.806980000000     0.068452500000    -0.355407   
C4       C      0.894672500000     0.785247500000     0.090100000000     1.23065    
H2       H      0.932420000000     0.808042500000     0.060765000000     0.0426213  
H3       H      0.819430000000     0.814467500000     0.062905000000     0.098283   
H1       H      0.769262500000     0.868605000000     0.217335000000     0.345094   
Al1      Al     0.875000000000     0.750000000000     0.125000000000     5.88242    
Al2      Al     0.750000000000     0.750000000000     0.125000000000     5.27565    
O1       O      0.954970000000     0.754327500000     0.139962500000    -2.19434    
O2       O      0.938237500000     0.975037500000     0.096022500000    -1.07561    
O3       O      0.865390000000     0.967192500000     0.103905000000    -1.23895    
O4       O      0.887350000000     0.898325000000     0.030082500000    -1.46818    
O5       O      0.804310000000     0.903335000000     0.025145000000    -1.33253    
C1       C      0.892557500000     0.961747500000     0.091545000000     0.756697   
C2       C      0.861390000000     0.941240000000     0.069492500000    -0.120264   
C3       C      0.886055000000     0.931980000000     0.056547500000    -0.347264   
C4       C      0.855327500000     0.910247500000     0.034900000000     1.19899    
H2       H      0.817580000000     0.933042500000     0.064235000000     0.040578   
H3       H      0.930570000000     0.939467500000     0.062095000000     0.105081   
H1       H      0.980737500000     0.993605000000     0.157665000000     0.377912   
O1       O      0.954970000000     0.870672500000     0.014962500000    -2.11089    
O2       O      0.938237500000     0.899962500000     0.221022500000    -1.14039    
O3       O      0.865390000000     0.907807500000     0.228905000000    -1.30336    
O4       O      0.887350000000     0.976675000000     0.155082500000    -1.44467    
O5       O      0.804310000000     0.971665000000     0.150145000000    -1.31036    
C1       C      0.892557500000     0.913252500000     0.216545000000     0.788288   
C2       C      0.861390000000     0.933760000000     0.194492500000    -0.13409    
C3       C      0.886055000000     0.943020000000     0.181547500000    -0.334944   
C4       C      0.855327500000     0.964752500000     0.159900000000     1.19283    
H2       H      0.817580000000     0.941957500000     0.189235000000     0.0465043  
H3       H      0.930570000000     0.935532500000     0.187095000000     0.102829   
H1       H      0.980737500000     0.881395000000     0.032665000000     0.344365   
O1       O      0.795030000000     0.995672500000     0.110037500000    -2.07498    
O2       O      0.811762500000     0.774962500000     0.153977500000    -1.16996    
O3       O      0.884610000000     0.782807500000     0.146095000000    -1.30672    
O4       O      0.862650000000     0.851675000000     0.219917500000    -1.52062    
O5       O      0.945690000000     0.846665000000     0.224855000000    -1.34574    
C1       C      0.857442500000     0.788252500000     0.158455000000     0.793418   
C2       C      0.888610000000     0.808760000000     0.180507500000    -0.134126   
C3       C      0.863945000000     0.818020000000     0.193452500000    -0.349271   
C4       C      0.894672500000     0.839752500000     0.215100000000     1.22932    
H2       H      0.932420000000     0.816957500000     0.185765000000     0.0468952  
H3       H      0.819430000000     0.810532500000     0.187905000000     0.0981178  
H1       H      0.769262500000     0.756395000000     0.092335000000     0.343381   
Al1      Al     0.875000000000     0.875000000000     0.250000000000     5.88473    
Al2      Al     0.750000000000     0.875000000000     0.250000000000     5.27848    
O1       O      0.795030000000     0.879327500000     0.485037500000    -2.22345    
O2       O      0.811762500000     0.850037500000     0.278977500000    -1.1707     
O3       O      0.884610000000     0.842192500000     0.271095000000    -1.30749    
O4       O      0.862650000000     0.773325000000     0.344917500000    -1.52004    
O5       O      0.945690000000     0.778335000000     0.349855000000    -1.34475    
C1       C      0.857442500000     0.836747500000     0.283455000000     0.793596   
C2       C      0.888610000000     0.816240000000     0.305507500000    -0.134526   
C3       C      0.863945000000     0.806980000000     0.318452500000    -0.349125   
C4       C      0.894672500000     0.785247500000     0.340100000000     1.22858    
H2       H      0.932420000000     0.808042500000     0.310765000000     0.0468059  
H3       H      0.819430000000     0.814467500000     0.312905000000     0.0978986  
H1       H      0.769262500000     0.868605000000     0.467335000000     0.344869   
Al1      Al     0.875000000000     0.750000000000     0.375000000000     5.88177    
Al2      Al     0.750000000000     0.750000000000     0.375000000000     5.27465    
O1       O      0.954970000000     0.754327500000     0.389962500000    -2.1936     
O2       O      0.938237500000     0.975037500000     0.346022500000    -1.07305    
O3       O      0.865390000000     0.967192500000     0.353905000000    -1.23785    
O4       O      0.887350000000     0.898325000000     0.280082500000    -1.5235     
O5       O      0.804310000000     0.903335000000     0.275145000000    -1.37905    
C1       C      0.892557500000     0.961747500000     0.341545000000     0.754032   
C2       C      0.861390000000     0.941240000000     0.319492500000    -0.111438   
C3       C      0.886055000000     0.931980000000     0.306547500000    -0.361384   
C4       C      0.855327500000     0.910247500000     0.284900000000     1.24734    
H2       H      0.817580000000     0.933042500000     0.314235000000     0.0388153  
H3       H      0.930570000000     0.939467500000     0.312095000000     0.110288   
H1       H      0.980737500000     0.993605000000     0.407665000000     0.37784    
O1       O      0.954970000000     0.870672500000     0.264962500000    -2.19496    
O2       O      0.938237500000     0.899962500000     0.471022500000    -1.14014    
O3       O      0.865390000000     0.907807500000     0.478905000000    -1.30332    
O4       O      0.887350000000     0.976675000000     0.405082500000    -1.44467    
O5       O      0.804310000000     0.971665000000     0.400145000000    -1.31036    
C1       C      0.892557500000     0.913252500000     0.466545000000     0.787982   
C2       C      0.861390000000     0.933760000000     0.444492500000    -0.134226   
C3       C      0.886055000000     0.943020000000     0.431547500000    -0.335169   
C4       C      0.855327500000     0.964752500000     0.409900000000     1.19255    
H2       H      0.817580000000     0.941957500000     0.439235000000     0.0462975  
H3       H      0.930570000000     0.935532500000     0.437095000000     0.102663   
H1       H      0.980737500000     0.881395000000     0.282665000000     0.352793   
O1       O      0.795030000000     0.995672500000     0.360037500000    -2.07468    
O2       O      0.811762500000     0.774962500000     0.403977500000    -1.17001    
O3       O      0.884610000000     0.782807500000     0.396095000000    -1.30691    
O4       O      0.862650000000     0.851675000000     0.469917500000    -1.52057    
O5       O      0.945690000000     0.846665000000     0.474855000000    -1.3454     
C1       C      0.857442500000     0.788252500000     0.408455000000     0.7932     
C2       C      0.888610000000     0.808760000000     0.430507500000    -0.134377   
C3       C      0.863945000000     0.818020000000     0.443452500000    -0.349379   
C4       C      0.894672500000     0.839752500000     0.465100000000     1.22894    
H2       H      0.932420000000     0.816957500000     0.435765000000     0.046737   
H3       H      0.819430000000     0.810532500000     0.437905000000     0.0978928  
H1       H      0.769262500000     0.756395000000     0.342335000000     0.344712   
Al1      Al     0.875000000000     0.875000000000     0.500000000000     5.8838     
Al2      Al     0.750000000000     0.875000000000     0.500000000000     5.27771    
O1       O      0.795030000000     0.879327500000     0.735037500000    -2.22331    
O2       O      0.811762500000     0.850037500000     0.528977500000    -1.17068    
O3       O      0.884610000000     0.842192500000     0.521095000000    -1.30745    
O4       O      0.862650000000     0.773325000000     0.594917500000    -1.52001    
O5       O      0.945690000000     0.778335000000     0.599855000000    -1.34478    
C1       C      0.857442500000     0.836747500000     0.533455000000     0.793423   
C2       C      0.888610000000     0.816240000000     0.555507500000    -0.134625   
C3       C      0.863945000000     0.806980000000     0.568452500000    -0.349236   
C4       C      0.894672500000     0.785247500000     0.590100000000     1.22842    
H2       H      0.932420000000     0.808042500000     0.560765000000     0.0466865  
H3       H      0.819430000000     0.814467500000     0.562905000000     0.0977902  
H1       H      0.769262500000     0.868605000000     0.717335000000     0.344759   
Al1      Al     0.875000000000     0.750000000000     0.625000000000     5.8811     
Al2      Al     0.750000000000     0.750000000000     0.625000000000     5.27401    
O1       O      0.954970000000     0.754327500000     0.639962500000    -2.19349    
O2       O      0.938237500000     0.975037500000     0.596022500000    -1.07309    
O3       O      0.865390000000     0.967192500000     0.603905000000    -1.23785    
O4       O      0.887350000000     0.898325000000     0.530082500000    -1.52343    
O5       O      0.804310000000     0.903335000000     0.525145000000    -1.37901    
C1       C      0.892557500000     0.961747500000     0.591545000000     0.753886   
C2       C      0.861390000000     0.941240000000     0.569492500000    -0.111556   
C3       C      0.886055000000     0.931980000000     0.556547500000    -0.361472   
C4       C      0.855327500000     0.910247500000     0.534900000000     1.24713    
H2       H      0.817580000000     0.933042500000     0.564235000000     0.038711   
H3       H      0.930570000000     0.939467500000     0.562095000000     0.110165   
H1       H      0.980737500000     0.993605000000     0.657665000000     0.377635   
O1       O      0.954970000000     0.870672500000     0.514962500000    -2.19444    
O2       O      0.938237500000     0.899962500000     0.721022500000    -1.14054    
O3       O      0.865390000000     0.907807500000     0.728905000000    -1.30341    
O4       O      0.887350000000     0.976675000000     0.655082500000    -1.44467    
O5       O      0.804310000000     0.971665000000     0.650145000000    -1.31034    
C1       C      0.892557500000     0.913252500000     0.716545000000     0.787924   
C2       C      0.861390000000     0.933760000000     0.694492500000    -0.134414   
C3       C      0.886055000000     0.943020000000     0.681547500000    -0.335261   
C4       C      0.855327500000     0.964752500000     0.659900000000     1.19236    
H2       H      0.817580000000     0.941957500000     0.689235000000     0.0461916  
H3       H      0.930570000000     0.935532500000     0.687095000000     0.102465   
H1       H      0.980737500000     0.881395000000     0.532665000000     0.352673   
O1       O      0.795030000000     0.995672500000     0.610037500000    -2.07452    
O2       O      0.811762500000     0.774962500000     0.653977500000    -1.17002    
O3       O      0.884610000000     0.782807500000     0.646095000000    -1.30693    
O4       O      0.862650000000     0.851675000000     0.719917500000    -1.52063    
O5       O      0.945690000000     0.846665000000     0.724855000000    -1.34584    
C1       C      0.857442500000     0.788252500000     0.658455000000     0.793027   
C2       C      0.888610000000     0.808760000000     0.680507500000    -0.134465   
C3       C      0.863945000000     0.818020000000     0.693452500000    -0.349584   
C4       C      0.894672500000     0.839752500000     0.715100000000     1.22893    
H2       H      0.932420000000     0.816957500000     0.685765000000     0.0465395  
H3       H      0.819430000000     0.810532500000     0.687905000000     0.0977899  
H1       H      0.769262500000     0.756395000000     0.592335000000     0.344602   
Al1      Al     0.875000000000     0.875000000000     0.750000000000     5.88321    
Al2      Al     0.750000000000     0.875000000000     0.750000000000     5.27702    
O1       O      0.795030000000     0.879327500000     0.985037500000    -2.09518    
O2       O      0.811762500000     0.850037500000     0.778977500000    -1.17064    
O3       O      0.884610000000     0.842192500000     0.771095000000    -1.3075     
O4       O      0.862650000000     0.773325000000     0.844917500000    -1.52081    
O5       O      0.945690000000     0.778335000000     0.849855000000    -1.34621    
C1       C      0.857442500000     0.836747500000     0.783455000000     0.793201   
C2       C      0.888610000000     0.816240000000     0.805507500000    -0.134547   
C3       C      0.863945000000     0.806980000000     0.818452500000    -0.349675   
C4       C      0.894672500000     0.785247500000     0.840100000000     1.22925    
H2       H      0.932420000000     0.808042500000     0.810765000000     0.0463869  
H3       H      0.819430000000     0.814467500000     0.812905000000     0.0977939  
H1       H      0.769262500000     0.868605000000     0.967335000000     0.333801   
Al1      Al     0.875000000000     0.750000000000     0.875000000000     5.88366    
Al2      Al     0.750000000000     0.750000000000     0.875000000000     5.27643    
O1       O      0.954970000000     0.754327500000     0.889962500000    -2.19477    
O2       O      0.938237500000     0.975037500000     0.846022500000    -1.07445    
O3       O      0.865390000000     0.967192500000     0.853905000000    -1.23853    
O4       O      0.887350000000     0.898325000000     0.780082500000    -1.52344    
O5       O      0.804310000000     0.903335000000     0.775145000000    -1.37897    
C1       C      0.892557500000     0.961747500000     0.841545000000     0.754405   
C2       C      0.861390000000     0.941240000000     0.819492500000    -0.111909   
C3       C      0.886055000000     0.931980000000     0.806547500000    -0.361441   
C4       C      0.855327500000     0.910247500000     0.784900000000     1.24691    
H2       H      0.817580000000     0.933042500000     0.814235000000     0.0386973  
H3       H      0.930570000000     0.939467500000     0.812095000000     0.109891   
H1       H      0.980737500000     0.993605000000     0.907665000000     0.379921   
O1       O      0.954970000000     0.870672500000     0.764962500000    -2.1947     
O2       O      0.938237500000     0.899962500000     0.971022500000    -1.07848    
O3       O      0.865390000000     0.907807500000     0.978905000000    -1.23027    
O4       O      0.887350000000     0.976675000000     0.905082500000    -1.44395    
O5       O      0.804310000000     0.971665000000     0.900145000000    -1.31051    
C1       C      0.892557500000     0.913252500000     0.966545000000     0.758598   
C2       C      0.861390000000     0.933760000000     0.944492500000    -0.119419   
C3       C      0.886055000000     0.943020000000     0.931547500000    -0.338992   
C4       C      0.855327500000     0.964752500000     0.909900000000     1.19569    
H2       H      0.817580000000     0.941957500000     0.939235000000     0.0459331  
H3       H      0.930570000000     0.935532500000     0.937095000000     0.107036   
H1       H      0.980737500000     0.881395000000     0.782665000000     0.352431   
O1       O      0.795030000000     0.995672500000     0.860037500000    -2.07565    
O2       O      0.811762500000     0.774962500000     0.903977500000    -1.16961    
O3       O      0.884610000000     0.782807500000     0.896095000000    -1.30702    
O4       O      0.862650000000     0.851675000000     0.969917500000    -1.44152    
O5       O      0.945690000000     0.846665000000     0.974855000000    -1.27109    
C1       C      0.857442500000     0.788252500000     0.908455000000     0.797521   
C2       C      0.888610000000     0.808760000000     0.930507500000    -0.141872   
C3       C      0.863945000000     0.818020000000     0.943452500000    -0.326731   
C4       C      0.894672500000     0.839752500000     0.965100000000     1.18019    
H2       H      0.932420000000     0.816957500000     0.935765000000     0.0528138  
H3       H      0.819430000000     0.810532500000     0.937905000000     0.0967502  
H1       H      0.769262500000     0.756395000000     0.842335000000     0.344567   


