data_Al-Fum

_audit_creation_method RASPA-1.0
_audit_creation_date 2025-7-10
_audit_author_name ''

_citation_id                 1
_citation_year               10.1002/anie.201410459

_cell_length_a    6.8419
_cell_length_b    12.0877
_cell_length_c    14.207
_cell_angle_alpha 90
_cell_angle_beta  122.547
_cell_angle_gamma 90
_cell_volume      23770.4

_symmetry_cell_setting          monoclinic
_symmetry_space_group_name_Hall 'P 1'
_symmetry_space_group_name_H-M  'P 1'
_symmetry_Int_Tables_number     1

_symmetry_equiv_pos_as_xyz 'x,y,z'

loop_
_atom_site_label
_atom_site_type_symbol
_atom_site_fract_x
_atom_site_fract_y
_atom_site_fract_z
_atom_site_charge
Al1      Al     0.125000000000     0.250000000000     0.000000000000     0.0385598  
Al1      Al     0.125000000000     0.000000000000     0.166666666667     0.0385598  
Al1      Al     0.125000000000     0.250000000000     0.333333333333     0.0385598  
Al1      Al     0.125000000000     0.000000000000     0.500000000000     0.0385598  
Al1      Al     0.125000000000     0.250000000000     0.666666666667     0.0385598  
Al1      Al     0.125000000000     0.000000000000     0.833333333333     0.0385598  
Al1      Al     0.125000000000     0.750000000000     0.000000000000     0.0385598  
Al1      Al     0.125000000000     0.500000000000     0.166666666667     0.0385598  
Al1      Al     0.125000000000     0.750000000000     0.333333333333     0.0385598  
Al1      Al     0.125000000000     0.500000000000     0.500000000000     0.0385598  
Al1      Al     0.125000000000     0.750000000000     0.666666666667     0.0385598  
Al1      Al     0.125000000000     0.500000000000     0.833333333333     0.0385598  
Al1      Al     0.375000000000     0.250000000000     0.000000000000     0.0385598  
Al1      Al     0.375000000000     0.000000000000     0.166666666667     0.0385598  
Al1      Al     0.375000000000     0.250000000000     0.333333333333     0.0385598  
Al1      Al     0.375000000000     0.000000000000     0.500000000000     0.0385598  
Al1      Al     0.375000000000     0.250000000000     0.666666666667     0.0385598  
Al1      Al     0.375000000000     0.000000000000     0.833333333333     0.0385598  
Al1      Al     0.375000000000     0.750000000000     0.000000000000     0.0385598  
Al1      Al     0.375000000000     0.500000000000     0.166666666667     0.0385598  
Al1      Al     0.375000000000     0.750000000000     0.333333333333     0.0385598  
Al1      Al     0.375000000000     0.500000000000     0.500000000000     0.0385598  
Al1      Al     0.375000000000     0.750000000000     0.666666666667     0.0385598  
Al1      Al     0.375000000000     0.500000000000     0.833333333333     0.0385598  
Al1      Al     0.625000000000     0.250000000000     0.000000000000     0.0385598  
Al1      Al     0.625000000000     0.000000000000     0.166666666667     0.0385598  
Al1      Al     0.625000000000     0.250000000000     0.333333333333     0.0385598  
Al1      Al     0.625000000000     0.000000000000     0.500000000000     0.0385598  
Al1      Al     0.625000000000     0.250000000000     0.666666666667     0.0385598  
Al1      Al     0.625000000000     0.000000000000     0.833333333333     0.0385598  
Al1      Al     0.625000000000     0.750000000000     0.000000000000     0.0385598  
Al1      Al     0.625000000000     0.500000000000     0.166666666667     0.0385598  
Al1      Al     0.625000000000     0.750000000000     0.333333333333     0.0385598  
Al1      Al     0.625000000000     0.500000000000     0.500000000000     0.0385598  
Al1      Al     0.625000000000     0.750000000000     0.666666666667     0.0385598  
Al1      Al     0.625000000000     0.500000000000     0.833333333333     0.0385598  
Al1      Al     0.875000000000     0.250000000000     0.000000000000     0.0385598  
Al1      Al     0.875000000000     0.000000000000     0.166666666667     0.0385598  
Al1      Al     0.875000000000     0.250000000000     0.333333333333     0.0385598  
Al1      Al     0.875000000000     0.000000000000     0.500000000000     0.0385598  
Al1      Al     0.875000000000     0.250000000000     0.666666666667     0.0385598  
Al1      Al     0.875000000000     0.000000000000     0.833333333333     0.0385598  
Al1      Al     0.875000000000     0.750000000000     0.000000000000     0.0385598  
Al1      Al     0.875000000000     0.500000000000     0.166666666667     0.0385598  
Al1      Al     0.875000000000     0.750000000000     0.333333333333     0.0385598  
Al1      Al     0.875000000000     0.500000000000     0.500000000000     0.0385598  
Al1      Al     0.875000000000     0.750000000000     0.666666666667     0.0385598  
Al1      Al     0.875000000000     0.500000000000     0.833333333333     0.0385598  
Al2      Al     0.000000000000     0.250000000000     0.000000000000     0.0947429  
Al2      Al     0.000000000000     0.000000000000     0.166666666667     0.0947429  
Al2      Al     0.000000000000     0.250000000000     0.333333333333     0.0947429  
Al2      Al     0.000000000000     0.000000000000     0.500000000000     0.0947429  
Al2      Al     0.000000000000     0.250000000000     0.666666666667     0.0947429  
Al2      Al     0.000000000000     0.000000000000     0.833333333333     0.0947429  
Al2      Al     0.000000000000     0.750000000000     0.000000000000     0.0947429  
Al2      Al     0.000000000000     0.500000000000     0.166666666667     0.0947429  
Al2      Al     0.000000000000     0.750000000000     0.333333333333     0.0947429  
Al2      Al     0.000000000000     0.500000000000     0.500000000000     0.0947429  
Al2      Al     0.000000000000     0.750000000000     0.666666666667     0.0947429  
Al2      Al     0.000000000000     0.500000000000     0.833333333333     0.0947429  
Al2      Al     0.250000000000     0.250000000000     0.000000000000     0.0947429  
Al2      Al     0.250000000000     0.000000000000     0.166666666667     0.0947429  
Al2      Al     0.250000000000     0.250000000000     0.333333333333     0.0947429  
Al2      Al     0.250000000000     0.000000000000     0.500000000000     0.0947429  
Al2      Al     0.250000000000     0.250000000000     0.666666666667     0.0947429  
Al2      Al     0.250000000000     0.000000000000     0.833333333333     0.0947429  
Al2      Al     0.250000000000     0.750000000000     0.000000000000     0.0947429  
Al2      Al     0.250000000000     0.500000000000     0.166666666667     0.0947429  
Al2      Al     0.250000000000     0.750000000000     0.333333333333     0.0947429  
Al2      Al     0.250000000000     0.500000000000     0.500000000000     0.0947429  
Al2      Al     0.250000000000     0.750000000000     0.666666666667     0.0947429  
Al2      Al     0.250000000000     0.500000000000     0.833333333333     0.0947429  
Al2      Al     0.500000000000     0.250000000000     0.000000000000     0.0947429  
Al2      Al     0.500000000000     0.000000000000     0.166666666667     0.0947429  
Al2      Al     0.500000000000     0.250000000000     0.333333333333     0.0947429  
Al2      Al     0.500000000000     0.000000000000     0.500000000000     0.0947429  
Al2      Al     0.500000000000     0.250000000000     0.666666666667     0.0947429  
Al2      Al     0.500000000000     0.000000000000     0.833333333333     0.0947429  
Al2      Al     0.500000000000     0.750000000000     0.000000000000     0.0947429  
Al2      Al     0.500000000000     0.500000000000     0.166666666667     0.0947429  
Al2      Al     0.500000000000     0.750000000000     0.333333333333     0.0947429  
Al2      Al     0.500000000000     0.500000000000     0.500000000000     0.0947429  
Al2      Al     0.500000000000     0.750000000000     0.666666666667     0.0947429  
Al2      Al     0.500000000000     0.500000000000     0.833333333333     0.0947429  
Al2      Al     0.750000000000     0.250000000000     0.000000000000     0.0947429  
Al2      Al     0.750000000000     0.000000000000     0.166666666667     0.0947429  
Al2      Al     0.750000000000     0.250000000000     0.333333333333     0.0947429  
Al2      Al     0.750000000000     0.000000000000     0.500000000000     0.0947429  
Al2      Al     0.750000000000     0.250000000000     0.666666666667     0.0947429  
Al2      Al     0.750000000000     0.000000000000     0.833333333333     0.0947429  
Al2      Al     0.750000000000     0.750000000000     0.000000000000     0.0947429  
Al2      Al     0.750000000000     0.500000000000     0.166666666667     0.0947429  
Al2      Al     0.750000000000     0.750000000000     0.333333333333     0.0947429  
Al2      Al     0.750000000000     0.500000000000     0.500000000000     0.0947429  
Al2      Al     0.750000000000     0.750000000000     0.666666666667     0.0947429  
Al2      Al     0.750000000000     0.500000000000     0.833333333333     0.0947429  
O1       O      0.045030000000     0.258655000000     0.313383333333     0.336936   
O1       O      0.204970000000     0.008655000000     0.186616666667     0.336936   
O1       O      0.204970000000     0.241345000000     0.019950000000     0.336936   
O1       O      0.045030000000     0.491345000000     0.146716666667     0.336936   
O1       O      0.045030000000     0.258655000000     0.646716666667     0.336936   
O1       O      0.204970000000     0.008655000000     0.519950000000     0.336936   
O1       O      0.204970000000     0.241345000000     0.353283333333     0.336936   
O1       O      0.045030000000     0.491345000000     0.480050000000     0.336936   
O1       O      0.045030000000     0.258655000000     0.980050000000     0.336936   
O1       O      0.204970000000     0.008655000000     0.853283333333     0.336936   
O1       O      0.204970000000     0.241345000000     0.686616666667     0.336936   
O1       O      0.045030000000     0.491345000000     0.813383333333     0.336936   
O1       O      0.045030000000     0.758655000000     0.313383333333     0.336936   
O1       O      0.204970000000     0.508655000000     0.186616666667     0.336936   
O1       O      0.204970000000     0.741345000000     0.019950000000     0.336936   
O1       O      0.045030000000     0.991345000000     0.146716666667     0.336936   
O1       O      0.045030000000     0.758655000000     0.646716666667     0.336936   
O1       O      0.204970000000     0.508655000000     0.519950000000     0.336936   
O1       O      0.204970000000     0.741345000000     0.353283333333     0.336936   
O1       O      0.045030000000     0.991345000000     0.480050000000     0.336936   
O1       O      0.045030000000     0.758655000000     0.980050000000     0.336936   
O1       O      0.204970000000     0.508655000000     0.853283333333     0.336936   
O1       O      0.204970000000     0.741345000000     0.686616666667     0.336936   
O1       O      0.045030000000     0.991345000000     0.813383333333     0.336936   
O1       O      0.295030000000     0.258655000000     0.313383333333     0.336936   
O1       O      0.454970000000     0.008655000000     0.186616666667     0.336936   
O1       O      0.454970000000     0.241345000000     0.019950000000     0.336936   
O1       O      0.295030000000     0.491345000000     0.146716666667     0.336936   
O1       O      0.295030000000     0.258655000000     0.646716666667     0.336936   
O1       O      0.454970000000     0.008655000000     0.519950000000     0.336936   
O1       O      0.454970000000     0.241345000000     0.353283333333     0.336936   
O1       O      0.295030000000     0.491345000000     0.480050000000     0.336936   
O1       O      0.295030000000     0.258655000000     0.980050000000     0.336936   
O1       O      0.454970000000     0.008655000000     0.853283333333     0.336936   
O1       O      0.454970000000     0.241345000000     0.686616666667     0.336936   
O1       O      0.295030000000     0.491345000000     0.813383333333     0.336936   
O1       O      0.295030000000     0.758655000000     0.313383333333     0.336936   
O1       O      0.454970000000     0.508655000000     0.186616666667     0.336936   
O1       O      0.454970000000     0.741345000000     0.019950000000     0.336936   
O1       O      0.295030000000     0.991345000000     0.146716666667     0.336936   
O1       O      0.295030000000     0.758655000000     0.646716666667     0.336936   
O1       O      0.454970000000     0.508655000000     0.519950000000     0.336936   
O1       O      0.454970000000     0.741345000000     0.353283333333     0.336936   
O1       O      0.295030000000     0.991345000000     0.480050000000     0.336936   
O1       O      0.295030000000     0.758655000000     0.980050000000     0.336936   
O1       O      0.454970000000     0.508655000000     0.853283333333     0.336936   
O1       O      0.454970000000     0.741345000000     0.686616666667     0.336936   
O1       O      0.295030000000     0.991345000000     0.813383333333     0.336936   
O1       O      0.545030000000     0.258655000000     0.313383333333     0.336936   
O1       O      0.704970000000     0.008655000000     0.186616666667     0.336936   
O1       O      0.704970000000     0.241345000000     0.019950000000     0.336936   
O1       O      0.545030000000     0.491345000000     0.146716666667     0.336936   
O1       O      0.545030000000     0.258655000000     0.646716666667     0.336936   
O1       O      0.704970000000     0.008655000000     0.519950000000     0.336936   
O1       O      0.704970000000     0.241345000000     0.353283333333     0.336936   
O1       O      0.545030000000     0.491345000000     0.480050000000     0.336936   
O1       O      0.545030000000     0.258655000000     0.980050000000     0.336936   
O1       O      0.704970000000     0.008655000000     0.853283333333     0.336936   
O1       O      0.704970000000     0.241345000000     0.686616666667     0.336936   
O1       O      0.545030000000     0.491345000000     0.813383333333     0.336936   
O1       O      0.545030000000     0.758655000000     0.313383333333     0.336936   
O1       O      0.704970000000     0.508655000000     0.186616666667     0.336936   
O1       O      0.704970000000     0.741345000000     0.019950000000     0.336936   
O1       O      0.545030000000     0.991345000000     0.146716666667     0.336936   
O1       O      0.545030000000     0.758655000000     0.646716666667     0.336936   
O1       O      0.704970000000     0.508655000000     0.519950000000     0.336936   
O1       O      0.704970000000     0.741345000000     0.353283333333     0.336936   
O1       O      0.545030000000     0.991345000000     0.480050000000     0.336936   
O1       O      0.545030000000     0.758655000000     0.980050000000     0.336936   
O1       O      0.704970000000     0.508655000000     0.853283333333     0.336936   
O1       O      0.704970000000     0.741345000000     0.686616666667     0.336936   
O1       O      0.545030000000     0.991345000000     0.813383333333     0.336936   
O1       O      0.795030000000     0.258655000000     0.313383333333     0.336936   
O1       O      0.954970000000     0.008655000000     0.186616666667     0.336936   
O1       O      0.954970000000     0.241345000000     0.019950000000     0.336936   
O1       O      0.795030000000     0.491345000000     0.146716666667     0.336936   
O1       O      0.795030000000     0.258655000000     0.646716666667     0.336936   
O1       O      0.954970000000     0.008655000000     0.519950000000     0.336936   
O1       O      0.954970000000     0.241345000000     0.353283333333     0.336936   
O1       O      0.795030000000     0.491345000000     0.480050000000     0.336936   
O1       O      0.795030000000     0.258655000000     0.980050000000     0.336936   
O1       O      0.954970000000     0.008655000000     0.853283333333     0.336936   
O1       O      0.954970000000     0.241345000000     0.686616666667     0.336936   
O1       O      0.795030000000     0.491345000000     0.813383333333     0.336936   
O1       O      0.795030000000     0.758655000000     0.313383333333     0.336936   
O1       O      0.954970000000     0.508655000000     0.186616666667     0.336936   
O1       O      0.954970000000     0.741345000000     0.019950000000     0.336936   
O1       O      0.795030000000     0.991345000000     0.146716666667     0.336936   
O1       O      0.795030000000     0.758655000000     0.646716666667     0.336936   
O1       O      0.954970000000     0.508655000000     0.519950000000     0.336936   
O1       O      0.954970000000     0.741345000000     0.353283333333     0.336936   
O1       O      0.795030000000     0.991345000000     0.480050000000     0.336936   
O1       O      0.795030000000     0.758655000000     0.980050000000     0.336936   
O1       O      0.954970000000     0.508655000000     0.853283333333     0.336936   
O1       O      0.954970000000     0.741345000000     0.686616666667     0.336936   
O1       O      0.795030000000     0.991345000000     0.813383333333     0.336936   
O2       O      0.061762500000     0.200075000000     0.038636666667     5.85379    
O2       O      0.188237500000     0.450075000000     0.128030000000     5.85379    
O2       O      0.188237500000     0.299925000000     0.294696666667     5.85379    
O2       O      0.061762500000     0.049925000000     0.205303333333     5.85379    
O2       O      0.061762500000     0.200075000000     0.371970000000     5.85379    
O2       O      0.188237500000     0.450075000000     0.461363333333     5.85379    
O2       O      0.188237500000     0.299925000000     0.628030000000     5.85379    
O2       O      0.061762500000     0.049925000000     0.538636666667     5.85379    
O2       O      0.061762500000     0.200075000000     0.705303333333     5.85379    
O2       O      0.188237500000     0.450075000000     0.794696666667     5.85379    
O2       O      0.188237500000     0.299925000000     0.961363333333     5.85379    
O2       O      0.061762500000     0.049925000000     0.871970000000     5.85379    
O2       O      0.061762500000     0.700075000000     0.038636666667     5.85379    
O2       O      0.188237500000     0.950075000000     0.128030000000     5.85379    
O2       O      0.188237500000     0.799925000000     0.294696666667     5.85379    
O2       O      0.061762500000     0.549925000000     0.205303333333     5.85379    
O2       O      0.061762500000     0.700075000000     0.371970000000     5.85379    
O2       O      0.188237500000     0.950075000000     0.461363333333     5.85379    
O2       O      0.188237500000     0.799925000000     0.628030000000     5.85379    
O2       O      0.061762500000     0.549925000000     0.538636666667     5.85379    
O2       O      0.061762500000     0.700075000000     0.705303333333     5.85379    
O2       O      0.188237500000     0.950075000000     0.794696666667     5.85379    
O2       O      0.188237500000     0.799925000000     0.961363333333     5.85379    
O2       O      0.061762500000     0.549925000000     0.871970000000     5.85379    
O2       O      0.311762500000     0.200075000000     0.038636666667     5.85379    
O2       O      0.438237500000     0.450075000000     0.128030000000     5.85379    
O2       O      0.438237500000     0.299925000000     0.294696666667     5.85379    
O2       O      0.311762500000     0.049925000000     0.205303333333     5.85379    
O2       O      0.311762500000     0.200075000000     0.371970000000     5.85379    
O2       O      0.438237500000     0.450075000000     0.461363333333     5.85379    
O2       O      0.438237500000     0.299925000000     0.628030000000     5.85379    
O2       O      0.311762500000     0.049925000000     0.538636666667     5.85379    
O2       O      0.311762500000     0.200075000000     0.705303333333     5.85379    
O2       O      0.438237500000     0.450075000000     0.794696666667     5.85379    
O2       O      0.438237500000     0.299925000000     0.961363333333     5.85379    
O2       O      0.311762500000     0.049925000000     0.871970000000     5.85379    
O2       O      0.311762500000     0.700075000000     0.038636666667     5.85379    
O2       O      0.438237500000     0.950075000000     0.128030000000     5.85379    
O2       O      0.438237500000     0.799925000000     0.294696666667     5.85379    
O2       O      0.311762500000     0.549925000000     0.205303333333     5.85379    
O2       O      0.311762500000     0.700075000000     0.371970000000     5.85379    
O2       O      0.438237500000     0.950075000000     0.461363333333     5.85379    
O2       O      0.438237500000     0.799925000000     0.628030000000     5.85379    
O2       O      0.311762500000     0.549925000000     0.538636666667     5.85379    
O2       O      0.311762500000     0.700075000000     0.705303333333     5.85379    
O2       O      0.438237500000     0.950075000000     0.794696666667     5.85379    
O2       O      0.438237500000     0.799925000000     0.961363333333     5.85379    
O2       O      0.311762500000     0.549925000000     0.871970000000     5.85379    
O2       O      0.561762500000     0.200075000000     0.038636666667     5.85379    
O2       O      0.688237500000     0.450075000000     0.128030000000     5.85379    
O2       O      0.688237500000     0.299925000000     0.294696666667     5.85379    
O2       O      0.561762500000     0.049925000000     0.205303333333     5.85379    
O2       O      0.561762500000     0.200075000000     0.371970000000     5.85379    
O2       O      0.688237500000     0.450075000000     0.461363333333     5.85379    
O2       O      0.688237500000     0.299925000000     0.628030000000     5.85379    
O2       O      0.561762500000     0.049925000000     0.538636666667     5.85379    
O2       O      0.561762500000     0.200075000000     0.705303333333     5.85379    
O2       O      0.688237500000     0.450075000000     0.794696666667     5.85379    
O2       O      0.688237500000     0.299925000000     0.961363333333     5.85379    
O2       O      0.561762500000     0.049925000000     0.871970000000     5.85379    
O2       O      0.561762500000     0.700075000000     0.038636666667     5.85379    
O2       O      0.688237500000     0.950075000000     0.128030000000     5.85379    
O2       O      0.688237500000     0.799925000000     0.294696666667     5.85379    
O2       O      0.561762500000     0.549925000000     0.205303333333     5.85379    
O2       O      0.561762500000     0.700075000000     0.371970000000     5.85379    
O2       O      0.688237500000     0.950075000000     0.461363333333     5.85379    
O2       O      0.688237500000     0.799925000000     0.628030000000     5.85379    
O2       O      0.561762500000     0.549925000000     0.538636666667     5.85379    
O2       O      0.561762500000     0.700075000000     0.705303333333     5.85379    
O2       O      0.688237500000     0.950075000000     0.794696666667     5.85379    
O2       O      0.688237500000     0.799925000000     0.961363333333     5.85379    
O2       O      0.561762500000     0.549925000000     0.871970000000     5.85379    
O2       O      0.811762500000     0.200075000000     0.038636666667     5.85379    
O2       O      0.938237500000     0.450075000000     0.128030000000     5.85379    
O2       O      0.938237500000     0.299925000000     0.294696666667     5.85379    
O2       O      0.811762500000     0.049925000000     0.205303333333     5.85379    
O2       O      0.811762500000     0.200075000000     0.371970000000     5.85379    
O2       O      0.938237500000     0.450075000000     0.461363333333     5.85379    
O2       O      0.938237500000     0.299925000000     0.628030000000     5.85379    
O2       O      0.811762500000     0.049925000000     0.538636666667     5.85379    
O2       O      0.811762500000     0.200075000000     0.705303333333     5.85379    
O2       O      0.938237500000     0.450075000000     0.794696666667     5.85379    
O2       O      0.938237500000     0.299925000000     0.961363333333     5.85379    
O2       O      0.811762500000     0.049925000000     0.871970000000     5.85379    
O2       O      0.811762500000     0.700075000000     0.038636666667     5.85379    
O2       O      0.938237500000     0.950075000000     0.128030000000     5.85379    
O2       O      0.938237500000     0.799925000000     0.294696666667     5.85379    
O2       O      0.811762500000     0.549925000000     0.205303333333     5.85379    
O2       O      0.811762500000     0.700075000000     0.371970000000     5.85379    
O2       O      0.938237500000     0.950075000000     0.461363333333     5.85379    
O2       O      0.938237500000     0.799925000000     0.628030000000     5.85379    
O2       O      0.811762500000     0.549925000000     0.538636666667     5.85379    
O2       O      0.811762500000     0.700075000000     0.705303333333     5.85379    
O2       O      0.938237500000     0.950075000000     0.794696666667     5.85379    
O2       O      0.938237500000     0.799925000000     0.961363333333     5.85379    
O2       O      0.811762500000     0.549925000000     0.871970000000     5.85379    
O3       O      0.134610000000     0.184385000000     0.028126666667     5.12113    
O3       O      0.115390000000     0.434385000000     0.138540000000     5.12113    
O3       O      0.115390000000     0.315615000000     0.305206666667     5.12113    
O3       O      0.134610000000     0.065615000000     0.194793333333     5.12113    
O3       O      0.134610000000     0.184385000000     0.361460000000     5.12113    
O3       O      0.115390000000     0.434385000000     0.471873333333     5.12113    
O3       O      0.115390000000     0.315615000000     0.638540000000     5.12113    
O3       O      0.134610000000     0.065615000000     0.528126666667     5.12113    
O3       O      0.134610000000     0.184385000000     0.694793333333     5.12113    
O3       O      0.115390000000     0.434385000000     0.805206666667     5.12113    
O3       O      0.115390000000     0.315615000000     0.971873333333     5.12113    
O3       O      0.134610000000     0.065615000000     0.861460000000     5.12113    
O3       O      0.134610000000     0.684385000000     0.028126666667     5.12113    
O3       O      0.115390000000     0.934385000000     0.138540000000     5.12113    
O3       O      0.115390000000     0.815615000000     0.305206666667     5.12113    
O3       O      0.134610000000     0.565615000000     0.194793333333     5.12113    
O3       O      0.134610000000     0.684385000000     0.361460000000     5.12113    
O3       O      0.115390000000     0.934385000000     0.471873333333     5.12113    
O3       O      0.115390000000     0.815615000000     0.638540000000     5.12113    
O3       O      0.134610000000     0.565615000000     0.528126666667     5.12113    
O3       O      0.134610000000     0.684385000000     0.694793333333     5.12113    
O3       O      0.115390000000     0.934385000000     0.805206666667     5.12113    
O3       O      0.115390000000     0.815615000000     0.971873333333     5.12113    
O3       O      0.134610000000     0.565615000000     0.861460000000     5.12113    
O3       O      0.384610000000     0.184385000000     0.028126666667     5.12113    
O3       O      0.365390000000     0.434385000000     0.138540000000     5.12113    
O3       O      0.365390000000     0.315615000000     0.305206666667     5.12113    
O3       O      0.384610000000     0.065615000000     0.194793333333     5.12113    
O3       O      0.384610000000     0.184385000000     0.361460000000     5.12113    
O3       O      0.365390000000     0.434385000000     0.471873333333     5.12113    
O3       O      0.365390000000     0.315615000000     0.638540000000     5.12113    
O3       O      0.384610000000     0.065615000000     0.528126666667     5.12113    
O3       O      0.384610000000     0.184385000000     0.694793333333     5.12113    
O3       O      0.365390000000     0.434385000000     0.805206666667     5.12113    
O3       O      0.365390000000     0.315615000000     0.971873333333     5.12113    
O3       O      0.384610000000     0.065615000000     0.861460000000     5.12113    
O3       O      0.384610000000     0.684385000000     0.028126666667     5.12113    
O3       O      0.365390000000     0.934385000000     0.138540000000     5.12113    
O3       O      0.365390000000     0.815615000000     0.305206666667     5.12113    
O3       O      0.384610000000     0.565615000000     0.194793333333     5.12113    
O3       O      0.384610000000     0.684385000000     0.361460000000     5.12113    
O3       O      0.365390000000     0.934385000000     0.471873333333     5.12113    
O3       O      0.365390000000     0.815615000000     0.638540000000     5.12113    
O3       O      0.384610000000     0.565615000000     0.528126666667     5.12113    
O3       O      0.384610000000     0.684385000000     0.694793333333     5.12113    
O3       O      0.365390000000     0.934385000000     0.805206666667     5.12113    
O3       O      0.365390000000     0.815615000000     0.971873333333     5.12113    
O3       O      0.384610000000     0.565615000000     0.861460000000     5.12113    
O3       O      0.634610000000     0.184385000000     0.028126666667     5.12113    
O3       O      0.615390000000     0.434385000000     0.138540000000     5.12113    
O3       O      0.615390000000     0.315615000000     0.305206666667     5.12113    
O3       O      0.634610000000     0.065615000000     0.194793333333     5.12113    
O3       O      0.634610000000     0.184385000000     0.361460000000     5.12113    
O3       O      0.615390000000     0.434385000000     0.471873333333     5.12113    
O3       O      0.615390000000     0.315615000000     0.638540000000     5.12113    
O3       O      0.634610000000     0.065615000000     0.528126666667     5.12113    
O3       O      0.634610000000     0.184385000000     0.694793333333     5.12113    
O3       O      0.615390000000     0.434385000000     0.805206666667     5.12113    
O3       O      0.615390000000     0.315615000000     0.971873333333     5.12113    
O3       O      0.634610000000     0.065615000000     0.861460000000     5.12113    
O3       O      0.634610000000     0.684385000000     0.028126666667     5.12113    
O3       O      0.615390000000     0.934385000000     0.138540000000     5.12113    
O3       O      0.615390000000     0.815615000000     0.305206666667     5.12113    
O3       O      0.634610000000     0.565615000000     0.194793333333     5.12113    
O3       O      0.634610000000     0.684385000000     0.361460000000     5.12113    
O3       O      0.615390000000     0.934385000000     0.471873333333     5.12113    
O3       O      0.615390000000     0.815615000000     0.638540000000     5.12113    
O3       O      0.634610000000     0.565615000000     0.528126666667     5.12113    
O3       O      0.634610000000     0.684385000000     0.694793333333     5.12113    
O3       O      0.615390000000     0.934385000000     0.805206666667     5.12113    
O3       O      0.615390000000     0.815615000000     0.971873333333     5.12113    
O3       O      0.634610000000     0.565615000000     0.861460000000     5.12113    
O3       O      0.884610000000     0.184385000000     0.028126666667     5.12113    
O3       O      0.865390000000     0.434385000000     0.138540000000     5.12113    
O3       O      0.865390000000     0.315615000000     0.305206666667     5.12113    
O3       O      0.884610000000     0.065615000000     0.194793333333     5.12113    
O3       O      0.884610000000     0.184385000000     0.361460000000     5.12113    
O3       O      0.865390000000     0.434385000000     0.471873333333     5.12113    
O3       O      0.865390000000     0.315615000000     0.638540000000     5.12113    
O3       O      0.884610000000     0.065615000000     0.528126666667     5.12113    
O3       O      0.884610000000     0.184385000000     0.694793333333     5.12113    
O3       O      0.865390000000     0.434385000000     0.805206666667     5.12113    
O3       O      0.865390000000     0.315615000000     0.971873333333     5.12113    
O3       O      0.884610000000     0.065615000000     0.861460000000     5.12113    
O3       O      0.884610000000     0.684385000000     0.028126666667     5.12113    
O3       O      0.865390000000     0.934385000000     0.138540000000     5.12113    
O3       O      0.865390000000     0.815615000000     0.305206666667     5.12113    
O3       O      0.884610000000     0.565615000000     0.194793333333     5.12113    
O3       O      0.884610000000     0.684385000000     0.361460000000     5.12113    
O3       O      0.865390000000     0.934385000000     0.471873333333     5.12113    
O3       O      0.865390000000     0.815615000000     0.638540000000     5.12113    
O3       O      0.884610000000     0.565615000000     0.528126666667     5.12113    
O3       O      0.884610000000     0.684385000000     0.694793333333     5.12113    
O3       O      0.865390000000     0.934385000000     0.805206666667     5.12113    
O3       O      0.865390000000     0.815615000000     0.971873333333     5.12113    
O3       O      0.884610000000     0.565615000000     0.861460000000     5.12113    
O4       O      0.112650000000     0.046650000000     0.126556666667    -2.21727    
O4       O      0.137350000000     0.296650000000     0.040110000000    -2.21727    
O4       O      0.137350000000     0.453350000000     0.206776666667    -2.21727    
O4       O      0.112650000000     0.203350000000     0.293223333333    -2.21727    
O4       O      0.112650000000     0.046650000000     0.459890000000    -2.21727    
O4       O      0.137350000000     0.296650000000     0.373443333333    -2.21727    
O4       O      0.137350000000     0.453350000000     0.540110000000    -2.21727    
O4       O      0.112650000000     0.203350000000     0.626556666667    -2.21727    
O4       O      0.112650000000     0.046650000000     0.793223333333    -2.21727    
O4       O      0.137350000000     0.296650000000     0.706776666667    -2.21727    
O4       O      0.137350000000     0.453350000000     0.873443333333    -2.21727    
O4       O      0.112650000000     0.203350000000     0.959890000000    -2.21727    
O4       O      0.112650000000     0.546650000000     0.126556666667    -2.21727    
O4       O      0.137350000000     0.796650000000     0.040110000000    -2.21727    
O4       O      0.137350000000     0.953350000000     0.206776666667    -2.21727    
O4       O      0.112650000000     0.703350000000     0.293223333333    -2.21727    
O4       O      0.112650000000     0.546650000000     0.459890000000    -2.21727    
O4       O      0.137350000000     0.796650000000     0.373443333333    -2.21727    
O4       O      0.137350000000     0.953350000000     0.540110000000    -2.21727    
O4       O      0.112650000000     0.703350000000     0.626556666667    -2.21727    
O4       O      0.112650000000     0.546650000000     0.793223333333    -2.21727    
O4       O      0.137350000000     0.796650000000     0.706776666667    -2.21727    
O4       O      0.137350000000     0.953350000000     0.873443333333    -2.21727    
O4       O      0.112650000000     0.703350000000     0.959890000000    -2.21727    
O4       O      0.362650000000     0.046650000000     0.126556666667    -2.21727    
O4       O      0.387350000000     0.296650000000     0.040110000000    -2.21727    
O4       O      0.387350000000     0.453350000000     0.206776666667    -2.21727    
O4       O      0.362650000000     0.203350000000     0.293223333333    -2.21727    
O4       O      0.362650000000     0.046650000000     0.459890000000    -2.21727    
O4       O      0.387350000000     0.296650000000     0.373443333333    -2.21727    
O4       O      0.387350000000     0.453350000000     0.540110000000    -2.21727    
O4       O      0.362650000000     0.203350000000     0.626556666667    -2.21727    
O4       O      0.362650000000     0.046650000000     0.793223333333    -2.21727    
O4       O      0.387350000000     0.296650000000     0.706776666667    -2.21727    
O4       O      0.387350000000     0.453350000000     0.873443333333    -2.21727    
O4       O      0.362650000000     0.203350000000     0.959890000000    -2.21727    
O4       O      0.362650000000     0.546650000000     0.126556666667    -2.21727    
O4       O      0.387350000000     0.796650000000     0.040110000000    -2.21727    
O4       O      0.387350000000     0.953350000000     0.206776666667    -2.21727    
O4       O      0.362650000000     0.703350000000     0.293223333333    -2.21727    
O4       O      0.362650000000     0.546650000000     0.459890000000    -2.21727    
O4       O      0.387350000000     0.796650000000     0.373443333333    -2.21727    
O4       O      0.387350000000     0.953350000000     0.540110000000    -2.21727    
O4       O      0.362650000000     0.703350000000     0.626556666667    -2.21727    
O4       O      0.362650000000     0.546650000000     0.793223333333    -2.21727    
O4       O      0.387350000000     0.796650000000     0.706776666667    -2.21727    
O4       O      0.387350000000     0.953350000000     0.873443333333    -2.21727    
O4       O      0.362650000000     0.703350000000     0.959890000000    -2.21727    
O4       O      0.612650000000     0.046650000000     0.126556666667    -2.21727    
O4       O      0.637350000000     0.296650000000     0.040110000000    -2.21727    
O4       O      0.637350000000     0.453350000000     0.206776666667    -2.21727    
O4       O      0.612650000000     0.203350000000     0.293223333333    -2.21727    
O4       O      0.612650000000     0.046650000000     0.459890000000    -2.21727    
O4       O      0.637350000000     0.296650000000     0.373443333333    -2.21727    
O4       O      0.637350000000     0.453350000000     0.540110000000    -2.21727    
O4       O      0.612650000000     0.203350000000     0.626556666667    -2.21727    
O4       O      0.612650000000     0.046650000000     0.793223333333    -2.21727    
O4       O      0.637350000000     0.296650000000     0.706776666667    -2.21727    
O4       O      0.637350000000     0.453350000000     0.873443333333    -2.21727    
O4       O      0.612650000000     0.203350000000     0.959890000000    -2.21727    
O4       O      0.612650000000     0.546650000000     0.126556666667    -2.21727    
O4       O      0.637350000000     0.796650000000     0.040110000000    -2.21727    
O4       O      0.637350000000     0.953350000000     0.206776666667    -2.21727    
O4       O      0.612650000000     0.703350000000     0.293223333333    -2.21727    
O4       O      0.612650000000     0.546650000000     0.459890000000    -2.21727    
O4       O      0.637350000000     0.796650000000     0.373443333333    -2.21727    
O4       O      0.637350000000     0.953350000000     0.540110000000    -2.21727    
O4       O      0.612650000000     0.703350000000     0.626556666667    -2.21727    
O4       O      0.612650000000     0.546650000000     0.793223333333    -2.21727    
O4       O      0.637350000000     0.796650000000     0.706776666667    -2.21727    
O4       O      0.637350000000     0.953350000000     0.873443333333    -2.21727    
O4       O      0.612650000000     0.703350000000     0.959890000000    -2.21727    
O4       O      0.862650000000     0.046650000000     0.126556666667    -2.21727    
O4       O      0.887350000000     0.296650000000     0.040110000000    -2.21727    
O4       O      0.887350000000     0.453350000000     0.206776666667    -2.21727    
O4       O      0.862650000000     0.203350000000     0.293223333333    -2.21727    
O4       O      0.862650000000     0.046650000000     0.459890000000    -2.21727    
O4       O      0.887350000000     0.296650000000     0.373443333333    -2.21727    
O4       O      0.887350000000     0.453350000000     0.540110000000    -2.21727    
O4       O      0.862650000000     0.203350000000     0.626556666667    -2.21727    
O4       O      0.862650000000     0.046650000000     0.793223333333    -2.21727    
O4       O      0.887350000000     0.296650000000     0.706776666667    -2.21727    
O4       O      0.887350000000     0.453350000000     0.873443333333    -2.21727    
O4       O      0.862650000000     0.203350000000     0.959890000000    -2.21727    
O4       O      0.862650000000     0.546650000000     0.126556666667    -2.21727    
O4       O      0.887350000000     0.796650000000     0.040110000000    -2.21727    
O4       O      0.887350000000     0.953350000000     0.206776666667    -2.21727    
O4       O      0.862650000000     0.703350000000     0.293223333333    -2.21727    
O4       O      0.862650000000     0.546650000000     0.459890000000    -2.21727    
O4       O      0.887350000000     0.796650000000     0.373443333333    -2.21727    
O4       O      0.887350000000     0.953350000000     0.540110000000    -2.21727    
O4       O      0.862650000000     0.703350000000     0.626556666667    -2.21727    
O4       O      0.862650000000     0.546650000000     0.793223333333    -2.21727    
O4       O      0.887350000000     0.796650000000     0.706776666667    -2.21727    
O4       O      0.887350000000     0.953350000000     0.873443333333    -2.21727    
O4       O      0.862650000000     0.703350000000     0.959890000000    -2.21727    
O5       O      0.195690000000     0.056670000000     0.133140000000    -1.17089    
O5       O      0.054310000000     0.306670000000     0.033526666667    -1.17089    
O5       O      0.054310000000     0.443330000000     0.200193333333    -1.17089    
O5       O      0.195690000000     0.193330000000     0.299806666667    -1.17089    
O5       O      0.195690000000     0.056670000000     0.466473333333    -1.17089    
O5       O      0.054310000000     0.306670000000     0.366860000000    -1.17089    
O5       O      0.054310000000     0.443330000000     0.533526666667    -1.17089    
O5       O      0.195690000000     0.193330000000     0.633140000000    -1.17089    
O5       O      0.195690000000     0.056670000000     0.799806666667    -1.17089    
O5       O      0.054310000000     0.306670000000     0.700193333333    -1.17089    
O5       O      0.054310000000     0.443330000000     0.866860000000    -1.17089    
O5       O      0.195690000000     0.193330000000     0.966473333333    -1.17089    
O5       O      0.195690000000     0.556670000000     0.133140000000    -1.17089    
O5       O      0.054310000000     0.806670000000     0.033526666667    -1.17089    
O5       O      0.054310000000     0.943330000000     0.200193333333    -1.17089    
O5       O      0.195690000000     0.693330000000     0.299806666667    -1.17089    
O5       O      0.195690000000     0.556670000000     0.466473333333    -1.17089    
O5       O      0.054310000000     0.806670000000     0.366860000000    -1.17089    
O5       O      0.054310000000     0.943330000000     0.533526666667    -1.17089    
O5       O      0.195690000000     0.693330000000     0.633140000000    -1.17089    
O5       O      0.195690000000     0.556670000000     0.799806666667    -1.17089    
O5       O      0.054310000000     0.806670000000     0.700193333333    -1.17089    
O5       O      0.054310000000     0.943330000000     0.866860000000    -1.17089    
O5       O      0.195690000000     0.693330000000     0.966473333333    -1.17089    
O5       O      0.445690000000     0.056670000000     0.133140000000    -1.17089    
O5       O      0.304310000000     0.306670000000     0.033526666667    -1.17089    
O5       O      0.304310000000     0.443330000000     0.200193333333    -1.17089    
O5       O      0.445690000000     0.193330000000     0.299806666667    -1.17089    
O5       O      0.445690000000     0.056670000000     0.466473333333    -1.17089    
O5       O      0.304310000000     0.306670000000     0.366860000000    -1.17089    
O5       O      0.304310000000     0.443330000000     0.533526666667    -1.17089    
O5       O      0.445690000000     0.193330000000     0.633140000000    -1.17089    
O5       O      0.445690000000     0.056670000000     0.799806666667    -1.17089    
O5       O      0.304310000000     0.306670000000     0.700193333333    -1.17089    
O5       O      0.304310000000     0.443330000000     0.866860000000    -1.17089    
O5       O      0.445690000000     0.193330000000     0.966473333333    -1.17089    
O5       O      0.445690000000     0.556670000000     0.133140000000    -1.17089    
O5       O      0.304310000000     0.806670000000     0.033526666667    -1.17089    
O5       O      0.304310000000     0.943330000000     0.200193333333    -1.17089    
O5       O      0.445690000000     0.693330000000     0.299806666667    -1.17089    
O5       O      0.445690000000     0.556670000000     0.466473333333    -1.17089    
O5       O      0.304310000000     0.806670000000     0.366860000000    -1.17089    
O5       O      0.304310000000     0.943330000000     0.533526666667    -1.17089    
O5       O      0.445690000000     0.693330000000     0.633140000000    -1.17089    
O5       O      0.445690000000     0.556670000000     0.799806666667    -1.17089    
O5       O      0.304310000000     0.806670000000     0.700193333333    -1.17089    
O5       O      0.304310000000     0.943330000000     0.866860000000    -1.17089    
O5       O      0.445690000000     0.693330000000     0.966473333333    -1.17089    
O5       O      0.695690000000     0.056670000000     0.133140000000    -1.17089    
O5       O      0.554310000000     0.306670000000     0.033526666667    -1.17089    
O5       O      0.554310000000     0.443330000000     0.200193333333    -1.17089    
O5       O      0.695690000000     0.193330000000     0.299806666667    -1.17089    
O5       O      0.695690000000     0.056670000000     0.466473333333    -1.17089    
O5       O      0.554310000000     0.306670000000     0.366860000000    -1.17089    
O5       O      0.554310000000     0.443330000000     0.533526666667    -1.17089    
O5       O      0.695690000000     0.193330000000     0.633140000000    -1.17089    
O5       O      0.695690000000     0.056670000000     0.799806666667    -1.17089    
O5       O      0.554310000000     0.306670000000     0.700193333333    -1.17089    
O5       O      0.554310000000     0.443330000000     0.866860000000    -1.17089    
O5       O      0.695690000000     0.193330000000     0.966473333333    -1.17089    
O5       O      0.695690000000     0.556670000000     0.133140000000    -1.17089    
O5       O      0.554310000000     0.806670000000     0.033526666667    -1.17089    
O5       O      0.554310000000     0.943330000000     0.200193333333    -1.17089    
O5       O      0.695690000000     0.693330000000     0.299806666667    -1.17089    
O5       O      0.695690000000     0.556670000000     0.466473333333    -1.17089    
O5       O      0.554310000000     0.806670000000     0.366860000000    -1.17089    
O5       O      0.554310000000     0.943330000000     0.533526666667    -1.17089    
O5       O      0.695690000000     0.693330000000     0.633140000000    -1.17089    
O5       O      0.695690000000     0.556670000000     0.799806666667    -1.17089    
O5       O      0.554310000000     0.806670000000     0.700193333333    -1.17089    
O5       O      0.554310000000     0.943330000000     0.866860000000    -1.17089    
O5       O      0.695690000000     0.693330000000     0.966473333333    -1.17089    
O5       O      0.945690000000     0.056670000000     0.133140000000    -1.17089    
O5       O      0.804310000000     0.306670000000     0.033526666667    -1.17089    
O5       O      0.804310000000     0.443330000000     0.200193333333    -1.17089    
O5       O      0.945690000000     0.193330000000     0.299806666667    -1.17089    
O5       O      0.945690000000     0.056670000000     0.466473333333    -1.17089    
O5       O      0.804310000000     0.306670000000     0.366860000000    -1.17089    
O5       O      0.804310000000     0.443330000000     0.533526666667    -1.17089    
O5       O      0.945690000000     0.193330000000     0.633140000000    -1.17089    
O5       O      0.945690000000     0.056670000000     0.799806666667    -1.17089    
O5       O      0.804310000000     0.306670000000     0.700193333333    -1.17089    
O5       O      0.804310000000     0.443330000000     0.866860000000    -1.17089    
O5       O      0.945690000000     0.193330000000     0.966473333333    -1.17089    
O5       O      0.945690000000     0.556670000000     0.133140000000    -1.17089    
O5       O      0.804310000000     0.806670000000     0.033526666667    -1.17089    
O5       O      0.804310000000     0.943330000000     0.200193333333    -1.17089    
O5       O      0.945690000000     0.693330000000     0.299806666667    -1.17089    
O5       O      0.945690000000     0.556670000000     0.466473333333    -1.17089    
O5       O      0.804310000000     0.806670000000     0.366860000000    -1.17089    
O5       O      0.804310000000     0.943330000000     0.533526666667    -1.17089    
O5       O      0.945690000000     0.693330000000     0.633140000000    -1.17089    
O5       O      0.945690000000     0.556670000000     0.799806666667    -1.17089    
O5       O      0.804310000000     0.806670000000     0.700193333333    -1.17089    
O5       O      0.804310000000     0.943330000000     0.866860000000    -1.17089    
O5       O      0.945690000000     0.693330000000     0.966473333333    -1.17089    
C1       C      0.107442500000     0.173495000000     0.044606666667    -1.31118    
C1       C      0.142557500000     0.423495000000     0.122060000000    -1.31118    
C1       C      0.142557500000     0.326505000000     0.288726666667    -1.31118    
C1       C      0.107442500000     0.076505000000     0.211273333333    -1.31118    
C1       C      0.107442500000     0.173495000000     0.377940000000    -1.31118    
C1       C      0.142557500000     0.423495000000     0.455393333333    -1.31118    
C1       C      0.142557500000     0.326505000000     0.622060000000    -1.31118    
C1       C      0.107442500000     0.076505000000     0.544606666667    -1.31118    
C1       C      0.107442500000     0.173495000000     0.711273333333    -1.31118    
C1       C      0.142557500000     0.423495000000     0.788726666667    -1.31118    
C1       C      0.142557500000     0.326505000000     0.955393333333    -1.31118    
C1       C      0.107442500000     0.076505000000     0.877940000000    -1.31118    
C1       C      0.107442500000     0.673495000000     0.044606666667    -1.31118    
C1       C      0.142557500000     0.923495000000     0.122060000000    -1.31118    
C1       C      0.142557500000     0.826505000000     0.288726666667    -1.31118    
C1       C      0.107442500000     0.576505000000     0.211273333333    -1.31118    
C1       C      0.107442500000     0.673495000000     0.377940000000    -1.31118    
C1       C      0.142557500000     0.923495000000     0.455393333333    -1.31118    
C1       C      0.142557500000     0.826505000000     0.622060000000    -1.31118    
C1       C      0.107442500000     0.576505000000     0.544606666667    -1.31118    
C1       C      0.107442500000     0.673495000000     0.711273333333    -1.31118    
C1       C      0.142557500000     0.923495000000     0.788726666667    -1.31118    
C1       C      0.142557500000     0.826505000000     0.955393333333    -1.31118    
C1       C      0.107442500000     0.576505000000     0.877940000000    -1.31118    
C1       C      0.357442500000     0.173495000000     0.044606666667    -1.31118    
C1       C      0.392557500000     0.423495000000     0.122060000000    -1.31118    
C1       C      0.392557500000     0.326505000000     0.288726666667    -1.31118    
C1       C      0.357442500000     0.076505000000     0.211273333333    -1.31118    
C1       C      0.357442500000     0.173495000000     0.377940000000    -1.31118    
C1       C      0.392557500000     0.423495000000     0.455393333333    -1.31118    
C1       C      0.392557500000     0.326505000000     0.622060000000    -1.31118    
C1       C      0.357442500000     0.076505000000     0.544606666667    -1.31118    
C1       C      0.357442500000     0.173495000000     0.711273333333    -1.31118    
C1       C      0.392557500000     0.423495000000     0.788726666667    -1.31118    
C1       C      0.392557500000     0.326505000000     0.955393333333    -1.31118    
C1       C      0.357442500000     0.076505000000     0.877940000000    -1.31118    
C1       C      0.357442500000     0.673495000000     0.044606666667    -1.31118    
C1       C      0.392557500000     0.923495000000     0.122060000000    -1.31118    
C1       C      0.392557500000     0.826505000000     0.288726666667    -1.31118    
C1       C      0.357442500000     0.576505000000     0.211273333333    -1.31118    
C1       C      0.357442500000     0.673495000000     0.377940000000    -1.31118    
C1       C      0.392557500000     0.923495000000     0.455393333333    -1.31118    
C1       C      0.392557500000     0.826505000000     0.622060000000    -1.31118    
C1       C      0.357442500000     0.576505000000     0.544606666667    -1.31118    
C1       C      0.357442500000     0.673495000000     0.711273333333    -1.31118    
C1       C      0.392557500000     0.923495000000     0.788726666667    -1.31118    
C1       C      0.392557500000     0.826505000000     0.955393333333    -1.31118    
C1       C      0.357442500000     0.576505000000     0.877940000000    -1.31118    
C1       C      0.607442500000     0.173495000000     0.044606666667    -1.31118    
C1       C      0.642557500000     0.423495000000     0.122060000000    -1.31118    
C1       C      0.642557500000     0.326505000000     0.288726666667    -1.31118    
C1       C      0.607442500000     0.076505000000     0.211273333333    -1.31118    
C1       C      0.607442500000     0.173495000000     0.377940000000    -1.31118    
C1       C      0.642557500000     0.423495000000     0.455393333333    -1.31118    
C1       C      0.642557500000     0.326505000000     0.622060000000    -1.31118    
C1       C      0.607442500000     0.076505000000     0.544606666667    -1.31118    
C1       C      0.607442500000     0.173495000000     0.711273333333    -1.31118    
C1       C      0.642557500000     0.423495000000     0.788726666667    -1.31118    
C1       C      0.642557500000     0.326505000000     0.955393333333    -1.31118    
C1       C      0.607442500000     0.076505000000     0.877940000000    -1.31118    
C1       C      0.607442500000     0.673495000000     0.044606666667    -1.31118    
C1       C      0.642557500000     0.923495000000     0.122060000000    -1.31118    
C1       C      0.642557500000     0.826505000000     0.288726666667    -1.31118    
C1       C      0.607442500000     0.576505000000     0.211273333333    -1.31118    
C1       C      0.607442500000     0.673495000000     0.377940000000    -1.31118    
C1       C      0.642557500000     0.923495000000     0.455393333333    -1.31118    
C1       C      0.642557500000     0.826505000000     0.622060000000    -1.31118    
C1       C      0.607442500000     0.576505000000     0.544606666667    -1.31118    
C1       C      0.607442500000     0.673495000000     0.711273333333    -1.31118    
C1       C      0.642557500000     0.923495000000     0.788726666667    -1.31118    
C1       C      0.642557500000     0.826505000000     0.955393333333    -1.31118    
C1       C      0.607442500000     0.576505000000     0.877940000000    -1.31118    
C1       C      0.857442500000     0.173495000000     0.044606666667    -1.31118    
C1       C      0.892557500000     0.423495000000     0.122060000000    -1.31118    
C1       C      0.892557500000     0.326505000000     0.288726666667    -1.31118    
C1       C      0.857442500000     0.076505000000     0.211273333333    -1.31118    
C1       C      0.857442500000     0.173495000000     0.377940000000    -1.31118    
C1       C      0.892557500000     0.423495000000     0.455393333333    -1.31118    
C1       C      0.892557500000     0.326505000000     0.622060000000    -1.31118    
C1       C      0.857442500000     0.076505000000     0.544606666667    -1.31118    
C1       C      0.857442500000     0.173495000000     0.711273333333    -1.31118    
C1       C      0.892557500000     0.423495000000     0.788726666667    -1.31118    
C1       C      0.892557500000     0.326505000000     0.955393333333    -1.31118    
C1       C      0.857442500000     0.076505000000     0.877940000000    -1.31118    
C1       C      0.857442500000     0.673495000000     0.044606666667    -1.31118    
C1       C      0.892557500000     0.923495000000     0.122060000000    -1.31118    
C1       C      0.892557500000     0.826505000000     0.288726666667    -1.31118    
C1       C      0.857442500000     0.576505000000     0.211273333333    -1.31118    
C1       C      0.857442500000     0.673495000000     0.377940000000    -1.31118    
C1       C      0.892557500000     0.923495000000     0.455393333333    -1.31118    
C1       C      0.892557500000     0.826505000000     0.622060000000    -1.31118    
C1       C      0.857442500000     0.576505000000     0.544606666667    -1.31118    
C1       C      0.857442500000     0.673495000000     0.711273333333    -1.31118    
C1       C      0.892557500000     0.923495000000     0.788726666667    -1.31118    
C1       C      0.892557500000     0.826505000000     0.955393333333    -1.31118    
C1       C      0.857442500000     0.576505000000     0.877940000000    -1.31118    
C2       C      0.138610000000     0.132480000000     0.074010000000    -1.50424    
C2       C      0.111390000000     0.382480000000     0.092656666667    -1.50424    
C2       C      0.111390000000     0.367520000000     0.259323333333    -1.50424    
C2       C      0.138610000000     0.117520000000     0.240676666667    -1.50424    
C2       C      0.138610000000     0.132480000000     0.407343333333    -1.50424    
C2       C      0.111390000000     0.382480000000     0.425990000000    -1.50424    
C2       C      0.111390000000     0.367520000000     0.592656666667    -1.50424    
C2       C      0.138610000000     0.117520000000     0.574010000000    -1.50424    
C2       C      0.138610000000     0.132480000000     0.740676666667    -1.50424    
C2       C      0.111390000000     0.382480000000     0.759323333333    -1.50424    
C2       C      0.111390000000     0.367520000000     0.925990000000    -1.50424    
C2       C      0.138610000000     0.117520000000     0.907343333333    -1.50424    
C2       C      0.138610000000     0.632480000000     0.074010000000    -1.50424    
C2       C      0.111390000000     0.882480000000     0.092656666667    -1.50424    
C2       C      0.111390000000     0.867520000000     0.259323333333    -1.50424    
C2       C      0.138610000000     0.617520000000     0.240676666667    -1.50424    
C2       C      0.138610000000     0.632480000000     0.407343333333    -1.50424    
C2       C      0.111390000000     0.882480000000     0.425990000000    -1.50424    
C2       C      0.111390000000     0.867520000000     0.592656666667    -1.50424    
C2       C      0.138610000000     0.617520000000     0.574010000000    -1.50424    
C2       C      0.138610000000     0.632480000000     0.740676666667    -1.50424    
C2       C      0.111390000000     0.882480000000     0.759323333333    -1.50424    
C2       C      0.111390000000     0.867520000000     0.925990000000    -1.50424    
C2       C      0.138610000000     0.617520000000     0.907343333333    -1.50424    
C2       C      0.388610000000     0.132480000000     0.074010000000    -1.50424    
C2       C      0.361390000000     0.382480000000     0.092656666667    -1.50424    
C2       C      0.361390000000     0.367520000000     0.259323333333    -1.50424    
C2       C      0.388610000000     0.117520000000     0.240676666667    -1.50424    
C2       C      0.388610000000     0.132480000000     0.407343333333    -1.50424    
C2       C      0.361390000000     0.382480000000     0.425990000000    -1.50424    
C2       C      0.361390000000     0.367520000000     0.592656666667    -1.50424    
C2       C      0.388610000000     0.117520000000     0.574010000000    -1.50424    
C2       C      0.388610000000     0.132480000000     0.740676666667    -1.50424    
C2       C      0.361390000000     0.382480000000     0.759323333333    -1.50424    
C2       C      0.361390000000     0.367520000000     0.925990000000    -1.50424    
C2       C      0.388610000000     0.117520000000     0.907343333333    -1.50424    
C2       C      0.388610000000     0.632480000000     0.074010000000    -1.50424    
C2       C      0.361390000000     0.882480000000     0.092656666667    -1.50424    
C2       C      0.361390000000     0.867520000000     0.259323333333    -1.50424    
C2       C      0.388610000000     0.617520000000     0.240676666667    -1.50424    
C2       C      0.388610000000     0.632480000000     0.407343333333    -1.50424    
C2       C      0.361390000000     0.882480000000     0.425990000000    -1.50424    
C2       C      0.361390000000     0.867520000000     0.592656666667    -1.50424    
C2       C      0.388610000000     0.617520000000     0.574010000000    -1.50424    
C2       C      0.388610000000     0.632480000000     0.740676666667    -1.50424    
C2       C      0.361390000000     0.882480000000     0.759323333333    -1.50424    
C2       C      0.361390000000     0.867520000000     0.925990000000    -1.50424    
C2       C      0.388610000000     0.617520000000     0.907343333333    -1.50424    
C2       C      0.638610000000     0.132480000000     0.074010000000    -1.50424    
C2       C      0.611390000000     0.382480000000     0.092656666667    -1.50424    
C2       C      0.611390000000     0.367520000000     0.259323333333    -1.50424    
C2       C      0.638610000000     0.117520000000     0.240676666667    -1.50424    
C2       C      0.638610000000     0.132480000000     0.407343333333    -1.50424    
C2       C      0.611390000000     0.382480000000     0.425990000000    -1.50424    
C2       C      0.611390000000     0.367520000000     0.592656666667    -1.50424    
C2       C      0.638610000000     0.117520000000     0.574010000000    -1.50424    
C2       C      0.638610000000     0.132480000000     0.740676666667    -1.50424    
C2       C      0.611390000000     0.382480000000     0.759323333333    -1.50424    
C2       C      0.611390000000     0.367520000000     0.925990000000    -1.50424    
C2       C      0.638610000000     0.117520000000     0.907343333333    -1.50424    
C2       C      0.638610000000     0.632480000000     0.074010000000    -1.50424    
C2       C      0.611390000000     0.882480000000     0.092656666667    -1.50424    
C2       C      0.611390000000     0.867520000000     0.259323333333    -1.50424    
C2       C      0.638610000000     0.617520000000     0.240676666667    -1.50424    
C2       C      0.638610000000     0.632480000000     0.407343333333    -1.50424    
C2       C      0.611390000000     0.882480000000     0.425990000000    -1.50424    
C2       C      0.611390000000     0.867520000000     0.592656666667    -1.50424    
C2       C      0.638610000000     0.617520000000     0.574010000000    -1.50424    
C2       C      0.638610000000     0.632480000000     0.740676666667    -1.50424    
C2       C      0.611390000000     0.882480000000     0.759323333333    -1.50424    
C2       C      0.611390000000     0.867520000000     0.925990000000    -1.50424    
C2       C      0.638610000000     0.617520000000     0.907343333333    -1.50424    
C2       C      0.888610000000     0.132480000000     0.074010000000    -1.50424    
C2       C      0.861390000000     0.382480000000     0.092656666667    -1.50424    
C2       C      0.861390000000     0.367520000000     0.259323333333    -1.50424    
C2       C      0.888610000000     0.117520000000     0.240676666667    -1.50424    
C2       C      0.888610000000     0.132480000000     0.407343333333    -1.50424    
C2       C      0.861390000000     0.382480000000     0.425990000000    -1.50424    
C2       C      0.861390000000     0.367520000000     0.592656666667    -1.50424    
C2       C      0.888610000000     0.117520000000     0.574010000000    -1.50424    
C2       C      0.888610000000     0.132480000000     0.740676666667    -1.50424    
C2       C      0.861390000000     0.382480000000     0.759323333333    -1.50424    
C2       C      0.861390000000     0.367520000000     0.925990000000    -1.50424    
C2       C      0.888610000000     0.117520000000     0.907343333333    -1.50424    
C2       C      0.888610000000     0.632480000000     0.074010000000    -1.50424    
C2       C      0.861390000000     0.882480000000     0.092656666667    -1.50424    
C2       C      0.861390000000     0.867520000000     0.259323333333    -1.50424    
C2       C      0.888610000000     0.617520000000     0.240676666667    -1.50424    
C2       C      0.888610000000     0.632480000000     0.407343333333    -1.50424    
C2       C      0.861390000000     0.882480000000     0.425990000000    -1.50424    
C2       C      0.861390000000     0.867520000000     0.592656666667    -1.50424    
C2       C      0.888610000000     0.617520000000     0.574010000000    -1.50424    
C2       C      0.888610000000     0.632480000000     0.740676666667    -1.50424    
C2       C      0.861390000000     0.882480000000     0.759323333333    -1.50424    
C2       C      0.861390000000     0.867520000000     0.925990000000    -1.50424    
C2       C      0.888610000000     0.617520000000     0.907343333333    -1.50424    
C3       C      0.113945000000     0.113960000000     0.091270000000    -1.3492     
C3       C      0.136055000000     0.363960000000     0.075396666667    -1.3492     
C3       C      0.136055000000     0.386040000000     0.242063333333    -1.3492     
C3       C      0.113945000000     0.136040000000     0.257936666667    -1.3492     
C3       C      0.113945000000     0.113960000000     0.424603333333    -1.3492     
C3       C      0.136055000000     0.363960000000     0.408730000000    -1.3492     
C3       C      0.136055000000     0.386040000000     0.575396666667    -1.3492     
C3       C      0.113945000000     0.136040000000     0.591270000000    -1.3492     
C3       C      0.113945000000     0.113960000000     0.757936666667    -1.3492     
C3       C      0.136055000000     0.363960000000     0.742063333333    -1.3492     
C3       C      0.136055000000     0.386040000000     0.908730000000    -1.3492     
C3       C      0.113945000000     0.136040000000     0.924603333333    -1.3492     
C3       C      0.113945000000     0.613960000000     0.091270000000    -1.3492     
C3       C      0.136055000000     0.863960000000     0.075396666667    -1.3492     
C3       C      0.136055000000     0.886040000000     0.242063333333    -1.3492     
C3       C      0.113945000000     0.636040000000     0.257936666667    -1.3492     
C3       C      0.113945000000     0.613960000000     0.424603333333    -1.3492     
C3       C      0.136055000000     0.863960000000     0.408730000000    -1.3492     
C3       C      0.136055000000     0.886040000000     0.575396666667    -1.3492     
C3       C      0.113945000000     0.636040000000     0.591270000000    -1.3492     
C3       C      0.113945000000     0.613960000000     0.757936666667    -1.3492     
C3       C      0.136055000000     0.863960000000     0.742063333333    -1.3492     
C3       C      0.136055000000     0.886040000000     0.908730000000    -1.3492     
C3       C      0.113945000000     0.636040000000     0.924603333333    -1.3492     
C3       C      0.363945000000     0.113960000000     0.091270000000    -1.3492     
C3       C      0.386055000000     0.363960000000     0.075396666667    -1.3492     
C3       C      0.386055000000     0.386040000000     0.242063333333    -1.3492     
C3       C      0.363945000000     0.136040000000     0.257936666667    -1.3492     
C3       C      0.363945000000     0.113960000000     0.424603333333    -1.3492     
C3       C      0.386055000000     0.363960000000     0.408730000000    -1.3492     
C3       C      0.386055000000     0.386040000000     0.575396666667    -1.3492     
C3       C      0.363945000000     0.136040000000     0.591270000000    -1.3492     
C3       C      0.363945000000     0.113960000000     0.757936666667    -1.3492     
C3       C      0.386055000000     0.363960000000     0.742063333333    -1.3492     
C3       C      0.386055000000     0.386040000000     0.908730000000    -1.3492     
C3       C      0.363945000000     0.136040000000     0.924603333333    -1.3492     
C3       C      0.363945000000     0.613960000000     0.091270000000    -1.3492     
C3       C      0.386055000000     0.863960000000     0.075396666667    -1.3492     
C3       C      0.386055000000     0.886040000000     0.242063333333    -1.3492     
C3       C      0.363945000000     0.636040000000     0.257936666667    -1.3492     
C3       C      0.363945000000     0.613960000000     0.424603333333    -1.3492     
C3       C      0.386055000000     0.863960000000     0.408730000000    -1.3492     
C3       C      0.386055000000     0.886040000000     0.575396666667    -1.3492     
C3       C      0.363945000000     0.636040000000     0.591270000000    -1.3492     
C3       C      0.363945000000     0.613960000000     0.757936666667    -1.3492     
C3       C      0.386055000000     0.863960000000     0.742063333333    -1.3492     
C3       C      0.386055000000     0.886040000000     0.908730000000    -1.3492     
C3       C      0.363945000000     0.636040000000     0.924603333333    -1.3492     
C3       C      0.613945000000     0.113960000000     0.091270000000    -1.3492     
C3       C      0.636055000000     0.363960000000     0.075396666667    -1.3492     
C3       C      0.636055000000     0.386040000000     0.242063333333    -1.3492     
C3       C      0.613945000000     0.136040000000     0.257936666667    -1.3492     
C3       C      0.613945000000     0.113960000000     0.424603333333    -1.3492     
C3       C      0.636055000000     0.363960000000     0.408730000000    -1.3492     
C3       C      0.636055000000     0.386040000000     0.575396666667    -1.3492     
C3       C      0.613945000000     0.136040000000     0.591270000000    -1.3492     
C3       C      0.613945000000     0.113960000000     0.757936666667    -1.3492     
C3       C      0.636055000000     0.363960000000     0.742063333333    -1.3492     
C3       C      0.636055000000     0.386040000000     0.908730000000    -1.3492     
C3       C      0.613945000000     0.136040000000     0.924603333333    -1.3492     
C3       C      0.613945000000     0.613960000000     0.091270000000    -1.3492     
C3       C      0.636055000000     0.863960000000     0.075396666667    -1.3492     
C3       C      0.636055000000     0.886040000000     0.242063333333    -1.3492     
C3       C      0.613945000000     0.636040000000     0.257936666667    -1.3492     
C3       C      0.613945000000     0.613960000000     0.424603333333    -1.3492     
C3       C      0.636055000000     0.863960000000     0.408730000000    -1.3492     
C3       C      0.636055000000     0.886040000000     0.575396666667    -1.3492     
C3       C      0.613945000000     0.636040000000     0.591270000000    -1.3492     
C3       C      0.613945000000     0.613960000000     0.757936666667    -1.3492     
C3       C      0.636055000000     0.863960000000     0.742063333333    -1.3492     
C3       C      0.636055000000     0.886040000000     0.908730000000    -1.3492     
C3       C      0.613945000000     0.636040000000     0.924603333333    -1.3492     
C3       C      0.863945000000     0.113960000000     0.091270000000    -1.3492     
C3       C      0.886055000000     0.363960000000     0.075396666667    -1.3492     
C3       C      0.886055000000     0.386040000000     0.242063333333    -1.3492     
C3       C      0.863945000000     0.136040000000     0.257936666667    -1.3492     
C3       C      0.863945000000     0.113960000000     0.424603333333    -1.3492     
C3       C      0.886055000000     0.363960000000     0.408730000000    -1.3492     
C3       C      0.886055000000     0.386040000000     0.575396666667    -1.3492     
C3       C      0.863945000000     0.136040000000     0.591270000000    -1.3492     
C3       C      0.863945000000     0.113960000000     0.757936666667    -1.3492     
C3       C      0.886055000000     0.363960000000     0.742063333333    -1.3492     
C3       C      0.886055000000     0.386040000000     0.908730000000    -1.3492     
C3       C      0.863945000000     0.136040000000     0.924603333333    -1.3492     
C3       C      0.863945000000     0.613960000000     0.091270000000    -1.3492     
C3       C      0.886055000000     0.863960000000     0.075396666667    -1.3492     
C3       C      0.886055000000     0.886040000000     0.242063333333    -1.3492     
C3       C      0.863945000000     0.636040000000     0.257936666667    -1.3492     
C3       C      0.863945000000     0.613960000000     0.424603333333    -1.3492     
C3       C      0.886055000000     0.863960000000     0.408730000000    -1.3492     
C3       C      0.886055000000     0.886040000000     0.575396666667    -1.3492     
C3       C      0.863945000000     0.636040000000     0.591270000000    -1.3492     
C3       C      0.863945000000     0.613960000000     0.757936666667    -1.3492     
C3       C      0.886055000000     0.863960000000     0.742063333333    -1.3492     
C3       C      0.886055000000     0.886040000000     0.908730000000    -1.3492     
C3       C      0.863945000000     0.636040000000     0.924603333333    -1.3492     
C4       C      0.144672500000     0.070495000000     0.120133333333     0.792009   
C4       C      0.105327500000     0.320495000000     0.046533333333     0.792009   
C4       C      0.105327500000     0.429505000000     0.213200000000     0.792009   
C4       C      0.144672500000     0.179505000000     0.286800000000     0.792009   
C4       C      0.144672500000     0.070495000000     0.453466666667     0.792009   
C4       C      0.105327500000     0.320495000000     0.379866666667     0.792009   
C4       C      0.105327500000     0.429505000000     0.546533333333     0.792009   
C4       C      0.144672500000     0.179505000000     0.620133333333     0.792009   
C4       C      0.144672500000     0.070495000000     0.786800000000     0.792009   
C4       C      0.105327500000     0.320495000000     0.713200000000     0.792009   
C4       C      0.105327500000     0.429505000000     0.879866666667     0.792009   
C4       C      0.144672500000     0.179505000000     0.953466666667     0.792009   
C4       C      0.144672500000     0.570495000000     0.120133333333     0.792009   
C4       C      0.105327500000     0.820495000000     0.046533333333     0.792009   
C4       C      0.105327500000     0.929505000000     0.213200000000     0.792009   
C4       C      0.144672500000     0.679505000000     0.286800000000     0.792009   
C4       C      0.144672500000     0.570495000000     0.453466666667     0.792009   
C4       C      0.105327500000     0.820495000000     0.379866666667     0.792009   
C4       C      0.105327500000     0.929505000000     0.546533333333     0.792009   
C4       C      0.144672500000     0.679505000000     0.620133333333     0.792009   
C4       C      0.144672500000     0.570495000000     0.786800000000     0.792009   
C4       C      0.105327500000     0.820495000000     0.713200000000     0.792009   
C4       C      0.105327500000     0.929505000000     0.879866666667     0.792009   
C4       C      0.144672500000     0.679505000000     0.953466666667     0.792009   
C4       C      0.394672500000     0.070495000000     0.120133333333     0.792009   
C4       C      0.355327500000     0.320495000000     0.046533333333     0.792009   
C4       C      0.355327500000     0.429505000000     0.213200000000     0.792009   
C4       C      0.394672500000     0.179505000000     0.286800000000     0.792009   
C4       C      0.394672500000     0.070495000000     0.453466666667     0.792009   
C4       C      0.355327500000     0.320495000000     0.379866666667     0.792009   
C4       C      0.355327500000     0.429505000000     0.546533333333     0.792009   
C4       C      0.394672500000     0.179505000000     0.620133333333     0.792009   
C4       C      0.394672500000     0.070495000000     0.786800000000     0.792009   
C4       C      0.355327500000     0.320495000000     0.713200000000     0.792009   
C4       C      0.355327500000     0.429505000000     0.879866666667     0.792009   
C4       C      0.394672500000     0.179505000000     0.953466666667     0.792009   
C4       C      0.394672500000     0.570495000000     0.120133333333     0.792009   
C4       C      0.355327500000     0.820495000000     0.046533333333     0.792009   
C4       C      0.355327500000     0.929505000000     0.213200000000     0.792009   
C4       C      0.394672500000     0.679505000000     0.286800000000     0.792009   
C4       C      0.394672500000     0.570495000000     0.453466666667     0.792009   
C4       C      0.355327500000     0.820495000000     0.379866666667     0.792009   
C4       C      0.355327500000     0.929505000000     0.546533333333     0.792009   
C4       C      0.394672500000     0.679505000000     0.620133333333     0.792009   
C4       C      0.394672500000     0.570495000000     0.786800000000     0.792009   
C4       C      0.355327500000     0.820495000000     0.713200000000     0.792009   
C4       C      0.355327500000     0.929505000000     0.879866666667     0.792009   
C4       C      0.394672500000     0.679505000000     0.953466666667     0.792009   
C4       C      0.644672500000     0.070495000000     0.120133333333     0.792009   
C4       C      0.605327500000     0.320495000000     0.046533333333     0.792009   
C4       C      0.605327500000     0.429505000000     0.213200000000     0.792009   
C4       C      0.644672500000     0.179505000000     0.286800000000     0.792009   
C4       C      0.644672500000     0.070495000000     0.453466666667     0.792009   
C4       C      0.605327500000     0.320495000000     0.379866666667     0.792009   
C4       C      0.605327500000     0.429505000000     0.546533333333     0.792009   
C4       C      0.644672500000     0.179505000000     0.620133333333     0.792009   
C4       C      0.644672500000     0.070495000000     0.786800000000     0.792009   
C4       C      0.605327500000     0.320495000000     0.713200000000     0.792009   
C4       C      0.605327500000     0.429505000000     0.879866666667     0.792009   
C4       C      0.644672500000     0.179505000000     0.953466666667     0.792009   
C4       C      0.644672500000     0.570495000000     0.120133333333     0.792009   
C4       C      0.605327500000     0.820495000000     0.046533333333     0.792009   
C4       C      0.605327500000     0.929505000000     0.213200000000     0.792009   
C4       C      0.644672500000     0.679505000000     0.286800000000     0.792009   
C4       C      0.644672500000     0.570495000000     0.453466666667     0.792009   
C4       C      0.605327500000     0.820495000000     0.379866666667     0.792009   
C4       C      0.605327500000     0.929505000000     0.546533333333     0.792009   
C4       C      0.644672500000     0.679505000000     0.620133333333     0.792009   
C4       C      0.644672500000     0.570495000000     0.786800000000     0.792009   
C4       C      0.605327500000     0.820495000000     0.713200000000     0.792009   
C4       C      0.605327500000     0.929505000000     0.879866666667     0.792009   
C4       C      0.644672500000     0.679505000000     0.953466666667     0.792009   
C4       C      0.894672500000     0.070495000000     0.120133333333     0.792009   
C4       C      0.855327500000     0.320495000000     0.046533333333     0.792009   
C4       C      0.855327500000     0.429505000000     0.213200000000     0.792009   
C4       C      0.894672500000     0.179505000000     0.286800000000     0.792009   
C4       C      0.894672500000     0.070495000000     0.453466666667     0.792009   
C4       C      0.855327500000     0.320495000000     0.379866666667     0.792009   
C4       C      0.855327500000     0.429505000000     0.546533333333     0.792009   
C4       C      0.894672500000     0.179505000000     0.620133333333     0.792009   
C4       C      0.894672500000     0.070495000000     0.786800000000     0.792009   
C4       C      0.855327500000     0.320495000000     0.713200000000     0.792009   
C4       C      0.855327500000     0.429505000000     0.879866666667     0.792009   
C4       C      0.894672500000     0.179505000000     0.953466666667     0.792009   
C4       C      0.894672500000     0.570495000000     0.120133333333     0.792009   
C4       C      0.855327500000     0.820495000000     0.046533333333     0.792009   
C4       C      0.855327500000     0.929505000000     0.213200000000     0.792009   
C4       C      0.894672500000     0.679505000000     0.286800000000     0.792009   
C4       C      0.894672500000     0.570495000000     0.453466666667     0.792009   
C4       C      0.855327500000     0.820495000000     0.379866666667     0.792009   
C4       C      0.855327500000     0.929505000000     0.546533333333     0.792009   
C4       C      0.894672500000     0.679505000000     0.620133333333     0.792009   
C4       C      0.894672500000     0.570495000000     0.786800000000     0.792009   
C4       C      0.855327500000     0.820495000000     0.713200000000     0.792009   
C4       C      0.855327500000     0.929505000000     0.879866666667     0.792009   
C4       C      0.894672500000     0.679505000000     0.953466666667     0.792009   
H2       H      0.182420000000     0.116085000000     0.081020000000    -0.137936   
H2       H      0.067580000000     0.366085000000     0.085646666667    -0.137936   
H2       H      0.067580000000     0.383915000000     0.252313333333    -0.137936   
H2       H      0.182420000000     0.133915000000     0.247686666667    -0.137936   
H2       H      0.182420000000     0.116085000000     0.414353333333    -0.137936   
H2       H      0.067580000000     0.366085000000     0.418980000000    -0.137936   
H2       H      0.067580000000     0.383915000000     0.585646666667    -0.137936   
H2       H      0.182420000000     0.133915000000     0.581020000000    -0.137936   
H2       H      0.182420000000     0.116085000000     0.747686666667    -0.137936   
H2       H      0.067580000000     0.366085000000     0.752313333333    -0.137936   
H2       H      0.067580000000     0.383915000000     0.918980000000    -0.137936   
H2       H      0.182420000000     0.133915000000     0.914353333333    -0.137936   
H2       H      0.182420000000     0.616085000000     0.081020000000    -0.137936   
H2       H      0.067580000000     0.866085000000     0.085646666667    -0.137936   
H2       H      0.067580000000     0.883915000000     0.252313333333    -0.137936   
H2       H      0.182420000000     0.633915000000     0.247686666667    -0.137936   
H2       H      0.182420000000     0.616085000000     0.414353333333    -0.137936   
H2       H      0.067580000000     0.866085000000     0.418980000000    -0.137936   
H2       H      0.067580000000     0.883915000000     0.585646666667    -0.137936   
H2       H      0.182420000000     0.633915000000     0.581020000000    -0.137936   
H2       H      0.182420000000     0.616085000000     0.747686666667    -0.137936   
H2       H      0.067580000000     0.866085000000     0.752313333333    -0.137936   
H2       H      0.067580000000     0.883915000000     0.918980000000    -0.137936   
H2       H      0.182420000000     0.633915000000     0.914353333333    -0.137936   
H2       H      0.432420000000     0.116085000000     0.081020000000    -0.137936   
H2       H      0.317580000000     0.366085000000     0.085646666667    -0.137936   
H2       H      0.317580000000     0.383915000000     0.252313333333    -0.137936   
H2       H      0.432420000000     0.133915000000     0.247686666667    -0.137936   
H2       H      0.432420000000     0.116085000000     0.414353333333    -0.137936   
H2       H      0.317580000000     0.366085000000     0.418980000000    -0.137936   
H2       H      0.317580000000     0.383915000000     0.585646666667    -0.137936   
H2       H      0.432420000000     0.133915000000     0.581020000000    -0.137936   
H2       H      0.432420000000     0.116085000000     0.747686666667    -0.137936   
H2       H      0.317580000000     0.366085000000     0.752313333333    -0.137936   
H2       H      0.317580000000     0.383915000000     0.918980000000    -0.137936   
H2       H      0.432420000000     0.133915000000     0.914353333333    -0.137936   
H2       H      0.432420000000     0.616085000000     0.081020000000    -0.137936   
H2       H      0.317580000000     0.866085000000     0.085646666667    -0.137936   
H2       H      0.317580000000     0.883915000000     0.252313333333    -0.137936   
H2       H      0.432420000000     0.633915000000     0.247686666667    -0.137936   
H2       H      0.432420000000     0.616085000000     0.414353333333    -0.137936   
H2       H      0.317580000000     0.866085000000     0.418980000000    -0.137936   
H2       H      0.317580000000     0.883915000000     0.585646666667    -0.137936   
H2       H      0.432420000000     0.633915000000     0.581020000000    -0.137936   
H2       H      0.432420000000     0.616085000000     0.747686666667    -0.137936   
H2       H      0.317580000000     0.866085000000     0.752313333333    -0.137936   
H2       H      0.317580000000     0.883915000000     0.918980000000    -0.137936   
H2       H      0.432420000000     0.633915000000     0.914353333333    -0.137936   
H2       H      0.682420000000     0.116085000000     0.081020000000    -0.137936   
H2       H      0.567580000000     0.366085000000     0.085646666667    -0.137936   
H2       H      0.567580000000     0.383915000000     0.252313333333    -0.137936   
H2       H      0.682420000000     0.133915000000     0.247686666667    -0.137936   
H2       H      0.682420000000     0.116085000000     0.414353333333    -0.137936   
H2       H      0.567580000000     0.366085000000     0.418980000000    -0.137936   
H2       H      0.567580000000     0.383915000000     0.585646666667    -0.137936   
H2       H      0.682420000000     0.133915000000     0.581020000000    -0.137936   
H2       H      0.682420000000     0.116085000000     0.747686666667    -0.137936   
H2       H      0.567580000000     0.366085000000     0.752313333333    -0.137936   
H2       H      0.567580000000     0.383915000000     0.918980000000    -0.137936   
H2       H      0.682420000000     0.133915000000     0.914353333333    -0.137936   
H2       H      0.682420000000     0.616085000000     0.081020000000    -0.137936   
H2       H      0.567580000000     0.866085000000     0.085646666667    -0.137936   
H2       H      0.567580000000     0.883915000000     0.252313333333    -0.137936   
H2       H      0.682420000000     0.633915000000     0.247686666667    -0.137936   
H2       H      0.682420000000     0.616085000000     0.414353333333    -0.137936   
H2       H      0.567580000000     0.866085000000     0.418980000000    -0.137936   
H2       H      0.567580000000     0.883915000000     0.585646666667    -0.137936   
H2       H      0.682420000000     0.633915000000     0.581020000000    -0.137936   
H2       H      0.682420000000     0.616085000000     0.747686666667    -0.137936   
H2       H      0.567580000000     0.866085000000     0.752313333333    -0.137936   
H2       H      0.567580000000     0.883915000000     0.918980000000    -0.137936   
H2       H      0.682420000000     0.633915000000     0.914353333333    -0.137936   
H2       H      0.932420000000     0.116085000000     0.081020000000    -0.137936   
H2       H      0.817580000000     0.366085000000     0.085646666667    -0.137936   
H2       H      0.817580000000     0.383915000000     0.252313333333    -0.137936   
H2       H      0.932420000000     0.133915000000     0.247686666667    -0.137936   
H2       H      0.932420000000     0.116085000000     0.414353333333    -0.137936   
H2       H      0.817580000000     0.366085000000     0.418980000000    -0.137936   
H2       H      0.817580000000     0.383915000000     0.585646666667    -0.137936   
H2       H      0.932420000000     0.133915000000     0.581020000000    -0.137936   
H2       H      0.932420000000     0.116085000000     0.747686666667    -0.137936   
H2       H      0.817580000000     0.366085000000     0.752313333333    -0.137936   
H2       H      0.817580000000     0.383915000000     0.918980000000    -0.137936   
H2       H      0.932420000000     0.133915000000     0.914353333333    -0.137936   
H2       H      0.932420000000     0.616085000000     0.081020000000    -0.137936   
H2       H      0.817580000000     0.866085000000     0.085646666667    -0.137936   
H2       H      0.817580000000     0.883915000000     0.252313333333    -0.137936   
H2       H      0.932420000000     0.633915000000     0.247686666667    -0.137936   
H2       H      0.932420000000     0.616085000000     0.414353333333    -0.137936   
H2       H      0.817580000000     0.866085000000     0.418980000000    -0.137936   
H2       H      0.817580000000     0.883915000000     0.585646666667    -0.137936   
H2       H      0.932420000000     0.633915000000     0.581020000000    -0.137936   
H2       H      0.932420000000     0.616085000000     0.747686666667    -0.137936   
H2       H      0.817580000000     0.866085000000     0.752313333333    -0.137936   
H2       H      0.817580000000     0.883915000000     0.918980000000    -0.137936   
H2       H      0.932420000000     0.633915000000     0.914353333333    -0.137936   
H3       H      0.069430000000     0.128935000000     0.083873333333    -0.350204   
H3       H      0.180570000000     0.378935000000     0.082793333333    -0.350204   
H3       H      0.180570000000     0.371065000000     0.249460000000    -0.350204   
H3       H      0.069430000000     0.121065000000     0.250540000000    -0.350204   
H3       H      0.069430000000     0.128935000000     0.417206666667    -0.350204   
H3       H      0.180570000000     0.378935000000     0.416126666667    -0.350204   
H3       H      0.180570000000     0.371065000000     0.582793333333    -0.350204   
H3       H      0.069430000000     0.121065000000     0.583873333333    -0.350204   
H3       H      0.069430000000     0.128935000000     0.750540000000    -0.350204   
H3       H      0.180570000000     0.378935000000     0.749460000000    -0.350204   
H3       H      0.180570000000     0.371065000000     0.916126666667    -0.350204   
H3       H      0.069430000000     0.121065000000     0.917206666667    -0.350204   
H3       H      0.069430000000     0.628935000000     0.083873333333    -0.350204   
H3       H      0.180570000000     0.878935000000     0.082793333333    -0.350204   
H3       H      0.180570000000     0.871065000000     0.249460000000    -0.350204   
H3       H      0.069430000000     0.621065000000     0.250540000000    -0.350204   
H3       H      0.069430000000     0.628935000000     0.417206666667    -0.350204   
H3       H      0.180570000000     0.878935000000     0.416126666667    -0.350204   
H3       H      0.180570000000     0.871065000000     0.582793333333    -0.350204   
H3       H      0.069430000000     0.621065000000     0.583873333333    -0.350204   
H3       H      0.069430000000     0.628935000000     0.750540000000    -0.350204   
H3       H      0.180570000000     0.878935000000     0.749460000000    -0.350204   
H3       H      0.180570000000     0.871065000000     0.916126666667    -0.350204   
H3       H      0.069430000000     0.621065000000     0.917206666667    -0.350204   
H3       H      0.319430000000     0.128935000000     0.083873333333    -0.350204   
H3       H      0.430570000000     0.378935000000     0.082793333333    -0.350204   
H3       H      0.430570000000     0.371065000000     0.249460000000    -0.350204   
H3       H      0.319430000000     0.121065000000     0.250540000000    -0.350204   
H3       H      0.319430000000     0.128935000000     0.417206666667    -0.350204   
H3       H      0.430570000000     0.378935000000     0.416126666667    -0.350204   
H3       H      0.430570000000     0.371065000000     0.582793333333    -0.350204   
H3       H      0.319430000000     0.121065000000     0.583873333333    -0.350204   
H3       H      0.319430000000     0.128935000000     0.750540000000    -0.350204   
H3       H      0.430570000000     0.378935000000     0.749460000000    -0.350204   
H3       H      0.430570000000     0.371065000000     0.916126666667    -0.350204   
H3       H      0.319430000000     0.121065000000     0.917206666667    -0.350204   
H3       H      0.319430000000     0.628935000000     0.083873333333    -0.350204   
H3       H      0.430570000000     0.878935000000     0.082793333333    -0.350204   
H3       H      0.430570000000     0.871065000000     0.249460000000    -0.350204   
H3       H      0.319430000000     0.621065000000     0.250540000000    -0.350204   
H3       H      0.319430000000     0.628935000000     0.417206666667    -0.350204   
H3       H      0.430570000000     0.878935000000     0.416126666667    -0.350204   
H3       H      0.430570000000     0.871065000000     0.582793333333    -0.350204   
H3       H      0.319430000000     0.621065000000     0.583873333333    -0.350204   
H3       H      0.319430000000     0.628935000000     0.750540000000    -0.350204   
H3       H      0.430570000000     0.878935000000     0.749460000000    -0.350204   
H3       H      0.430570000000     0.871065000000     0.916126666667    -0.350204   
H3       H      0.319430000000     0.621065000000     0.917206666667    -0.350204   
H3       H      0.569430000000     0.128935000000     0.083873333333    -0.350204   
H3       H      0.680570000000     0.378935000000     0.082793333333    -0.350204   
H3       H      0.680570000000     0.371065000000     0.249460000000    -0.350204   
H3       H      0.569430000000     0.121065000000     0.250540000000    -0.350204   
H3       H      0.569430000000     0.128935000000     0.417206666667    -0.350204   
H3       H      0.680570000000     0.378935000000     0.416126666667    -0.350204   
H3       H      0.680570000000     0.371065000000     0.582793333333    -0.350204   
H3       H      0.569430000000     0.121065000000     0.583873333333    -0.350204   
H3       H      0.569430000000     0.128935000000     0.750540000000    -0.350204   
H3       H      0.680570000000     0.378935000000     0.749460000000    -0.350204   
H3       H      0.680570000000     0.371065000000     0.916126666667    -0.350204   
H3       H      0.569430000000     0.121065000000     0.917206666667    -0.350204   
H3       H      0.569430000000     0.628935000000     0.083873333333    -0.350204   
H3       H      0.680570000000     0.878935000000     0.082793333333    -0.350204   
H3       H      0.680570000000     0.871065000000     0.249460000000    -0.350204   
H3       H      0.569430000000     0.621065000000     0.250540000000    -0.350204   
H3       H      0.569430000000     0.628935000000     0.417206666667    -0.350204   
H3       H      0.680570000000     0.878935000000     0.416126666667    -0.350204   
H3       H      0.680570000000     0.871065000000     0.582793333333    -0.350204   
H3       H      0.569430000000     0.621065000000     0.583873333333    -0.350204   
H3       H      0.569430000000     0.628935000000     0.750540000000    -0.350204   
H3       H      0.680570000000     0.878935000000     0.749460000000    -0.350204   
H3       H      0.680570000000     0.871065000000     0.916126666667    -0.350204   
H3       H      0.569430000000     0.621065000000     0.917206666667    -0.350204   
H3       H      0.819430000000     0.128935000000     0.083873333333    -0.350204   
H3       H      0.930570000000     0.378935000000     0.082793333333    -0.350204   
H3       H      0.930570000000     0.371065000000     0.249460000000    -0.350204   
H3       H      0.819430000000     0.121065000000     0.250540000000    -0.350204   
H3       H      0.819430000000     0.128935000000     0.417206666667    -0.350204   
H3       H      0.930570000000     0.378935000000     0.416126666667    -0.350204   
H3       H      0.930570000000     0.371065000000     0.582793333333    -0.350204   
H3       H      0.819430000000     0.121065000000     0.583873333333    -0.350204   
H3       H      0.819430000000     0.128935000000     0.750540000000    -0.350204   
H3       H      0.930570000000     0.378935000000     0.749460000000    -0.350204   
H3       H      0.930570000000     0.371065000000     0.916126666667    -0.350204   
H3       H      0.819430000000     0.121065000000     0.917206666667    -0.350204   
H3       H      0.819430000000     0.628935000000     0.083873333333    -0.350204   
H3       H      0.930570000000     0.878935000000     0.082793333333    -0.350204   
H3       H      0.930570000000     0.871065000000     0.249460000000    -0.350204   
H3       H      0.819430000000     0.621065000000     0.250540000000    -0.350204   
H3       H      0.819430000000     0.628935000000     0.417206666667    -0.350204   
H3       H      0.930570000000     0.878935000000     0.416126666667    -0.350204   
H3       H      0.930570000000     0.871065000000     0.582793333333    -0.350204   
H3       H      0.819430000000     0.621065000000     0.583873333333    -0.350204   
H3       H      0.819430000000     0.628935000000     0.750540000000    -0.350204   
H3       H      0.930570000000     0.878935000000     0.749460000000    -0.350204   
H3       H      0.930570000000     0.871065000000     0.916126666667    -0.350204   
H3       H      0.819430000000     0.621065000000     0.917206666667    -0.350204   
H1       H      0.019262500000     0.237210000000     0.289780000000     1.21669    
H1       H      0.230737500000     0.487210000000     0.210220000000     1.21669    
H1       H      0.230737500000     0.262790000000     0.043553333333     1.21669    
H1       H      0.019262500000     0.012790000000     0.123113333333     1.21669    
H1       H      0.019262500000     0.237210000000     0.623113333333     1.21669    
H1       H      0.230737500000     0.487210000000     0.543553333333     1.21669    
H1       H      0.230737500000     0.262790000000     0.376886666667     1.21669    
H1       H      0.019262500000     0.012790000000     0.456446666667     1.21669    
H1       H      0.019262500000     0.237210000000     0.956446666667     1.21669    
H1       H      0.230737500000     0.487210000000     0.876886666667     1.21669    
H1       H      0.230737500000     0.262790000000     0.710220000000     1.21669    
H1       H      0.019262500000     0.012790000000     0.789780000000     1.21669    
H1       H      0.019262500000     0.737210000000     0.289780000000     1.21669    
H1       H      0.230737500000     0.987210000000     0.210220000000     1.21669    
H1       H      0.230737500000     0.762790000000     0.043553333333     1.21669    
H1       H      0.019262500000     0.512790000000     0.123113333333     1.21669    
H1       H      0.019262500000     0.737210000000     0.623113333333     1.21669    
H1       H      0.230737500000     0.987210000000     0.543553333333     1.21669    
H1       H      0.230737500000     0.762790000000     0.376886666667     1.21669    
H1       H      0.019262500000     0.512790000000     0.456446666667     1.21669    
H1       H      0.019262500000     0.737210000000     0.956446666667     1.21669    
H1       H      0.230737500000     0.987210000000     0.876886666667     1.21669    
H1       H      0.230737500000     0.762790000000     0.710220000000     1.21669    
H1       H      0.019262500000     0.512790000000     0.789780000000     1.21669    
H1       H      0.269262500000     0.237210000000     0.289780000000     1.21669    
H1       H      0.480737500000     0.487210000000     0.210220000000     1.21669    
H1       H      0.480737500000     0.262790000000     0.043553333333     1.21669    
H1       H      0.269262500000     0.012790000000     0.123113333333     1.21669    
H1       H      0.269262500000     0.237210000000     0.623113333333     1.21669    
H1       H      0.480737500000     0.487210000000     0.543553333333     1.21669    
H1       H      0.480737500000     0.262790000000     0.376886666667     1.21669    
H1       H      0.269262500000     0.012790000000     0.456446666667     1.21669    
H1       H      0.269262500000     0.237210000000     0.956446666667     1.21669    
H1       H      0.480737500000     0.487210000000     0.876886666667     1.21669    
H1       H      0.480737500000     0.262790000000     0.710220000000     1.21669    
H1       H      0.269262500000     0.012790000000     0.789780000000     1.21669    
H1       H      0.269262500000     0.737210000000     0.289780000000     1.21669    
H1       H      0.480737500000     0.987210000000     0.210220000000     1.21669    
H1       H      0.480737500000     0.762790000000     0.043553333333     1.21669    
H1       H      0.269262500000     0.512790000000     0.123113333333     1.21669    
H1       H      0.269262500000     0.737210000000     0.623113333333     1.21669    
H1       H      0.480737500000     0.987210000000     0.543553333333     1.21669    
H1       H      0.480737500000     0.762790000000     0.376886666667     1.21669    
H1       H      0.269262500000     0.512790000000     0.456446666667     1.21669    
H1       H      0.269262500000     0.737210000000     0.956446666667     1.21669    
H1       H      0.480737500000     0.987210000000     0.876886666667     1.21669    
H1       H      0.480737500000     0.762790000000     0.710220000000     1.21669    
H1       H      0.269262500000     0.512790000000     0.789780000000     1.21669    
H1       H      0.519262500000     0.237210000000     0.289780000000     1.21669    
H1       H      0.730737500000     0.487210000000     0.210220000000     1.21669    
H1       H      0.730737500000     0.262790000000     0.043553333333     1.21669    
H1       H      0.519262500000     0.012790000000     0.123113333333     1.21669    
H1       H      0.519262500000     0.237210000000     0.623113333333     1.21669    
H1       H      0.730737500000     0.487210000000     0.543553333333     1.21669    
H1       H      0.730737500000     0.262790000000     0.376886666667     1.21669    
H1       H      0.519262500000     0.012790000000     0.456446666667     1.21669    
H1       H      0.519262500000     0.237210000000     0.956446666667     1.21669    
H1       H      0.730737500000     0.487210000000     0.876886666667     1.21669    
H1       H      0.730737500000     0.262790000000     0.710220000000     1.21669    
H1       H      0.519262500000     0.012790000000     0.789780000000     1.21669    
H1       H      0.519262500000     0.737210000000     0.289780000000     1.21669    
H1       H      0.730737500000     0.987210000000     0.210220000000     1.21669    
H1       H      0.730737500000     0.762790000000     0.043553333333     1.21669    
H1       H      0.519262500000     0.512790000000     0.123113333333     1.21669    
H1       H      0.519262500000     0.737210000000     0.623113333333     1.21669    
H1       H      0.730737500000     0.987210000000     0.543553333333     1.21669    
H1       H      0.730737500000     0.762790000000     0.376886666667     1.21669    
H1       H      0.519262500000     0.512790000000     0.456446666667     1.21669    
H1       H      0.519262500000     0.737210000000     0.956446666667     1.21669    
H1       H      0.730737500000     0.987210000000     0.876886666667     1.21669    
H1       H      0.730737500000     0.762790000000     0.710220000000     1.21669    
H1       H      0.519262500000     0.512790000000     0.789780000000     1.21669    
H1       H      0.769262500000     0.237210000000     0.289780000000     1.21669    
H1       H      0.980737500000     0.487210000000     0.210220000000     1.21669    
H1       H      0.980737500000     0.262790000000     0.043553333333     1.21669    
H1       H      0.769262500000     0.012790000000     0.123113333333     1.21669    
H1       H      0.769262500000     0.237210000000     0.623113333333     1.21669    
H1       H      0.980737500000     0.487210000000     0.543553333333     1.21669    
H1       H      0.980737500000     0.262790000000     0.376886666667     1.21669    
H1       H      0.769262500000     0.012790000000     0.456446666667     1.21669    
H1       H      0.769262500000     0.237210000000     0.956446666667     1.21669    
H1       H      0.980737500000     0.487210000000     0.876886666667     1.21669    
H1       H      0.980737500000     0.262790000000     0.710220000000     1.21669    
H1       H      0.769262500000     0.012790000000     0.789780000000     1.21669    
H1       H      0.769262500000     0.737210000000     0.289780000000     1.21669    
H1       H      0.980737500000     0.987210000000     0.210220000000     1.21669    
H1       H      0.980737500000     0.762790000000     0.043553333333     1.21669    
H1       H      0.769262500000     0.512790000000     0.123113333333     1.21669    
H1       H      0.769262500000     0.737210000000     0.623113333333     1.21669    
H1       H      0.980737500000     0.987210000000     0.543553333333     1.21669    
H1       H      0.980737500000     0.762790000000     0.376886666667     1.21669    
H1       H      0.769262500000     0.512790000000     0.456446666667     1.21669    
H1       H      0.769262500000     0.737210000000     0.956446666667     1.21669    
H1       H      0.980737500000     0.987210000000     0.876886666667     1.21669    
H1       H      0.980737500000     0.762790000000     0.710220000000     1.21669    
H1       H      0.769262500000     0.512790000000     0.789780000000     1.21669    


