data_MOF-303

_audit_creation_method RASPA-1.0
_audit_creation_date 2025-7-10
_audit_author_name ''

_citation_id                 1
_citation_year               10.1126/science.abj0890

_cell_length_a    24.0876
_cell_length_b    29.9298
_cell_length_c    28.1588
_cell_angle_alpha 90
_cell_angle_beta  101.929
_cell_angle_gamma 90
_cell_volume      19862.3

_symmetry_cell_setting          monoclinic
_symmetry_space_group_name_Hall 'P 1'
_symmetry_space_group_name_H-M  'P 1'
_symmetry_Int_Tables_number     1

_symmetry_equiv_pos_as_xyz 'x,y,z'

loop_
_atom_site_label
_atom_site_type_symbol
_atom_site_fract_x
_atom_site_fract_y
_atom_site_fract_z
_atom_site_charge
Al2      Al     0.250000000000     0.250000000000     0.250000000000     7.1239     
Al1      Al     0.367590000000     0.216775000000     0.217505000000     7.33937    
Al3      Al     0.000000000000     0.250000000000     0.250000000000     7.90369    
O4       O      0.311665000000     0.174445000000     0.190730000000    -1.74756    
O2       O      0.325030000000     0.234760000000     0.261780000000    -3.2025     
H2       H      0.344194500000     0.236216000000     0.293995000000     0.821456   
O7       O      0.406220000000     0.194465000000     0.170605000000    -1.78311    
O1       O      0.423555000000     0.257590000000     0.240630000000    -3.39359    
H1       H      0.411331000000     0.285581000000     0.248521500000     0.877015   
O5       O      0.165740000000     0.011305000000     0.077775000000    -1.72355    
O9       O      0.404430000000     0.076955000000     0.013640000000    -1.71886    
O3       O      0.229775000000     0.200610000000     0.206050000000    -1.6954     
O6       O      0.241055000000     0.038390000000     0.052450000000    -1.68531    
O10      O      0.495545000000     0.055485000000     0.030985000000    -1.87768    
O8       O      0.495395000000     0.219360000000     0.190215000000    -1.87269    
N4       N      0.022950000000     0.121400000000     0.097300000000    -0.0744841  
H4       H      0.051841500000     0.107657500000     0.090763000000     0.092589   
N1       N      0.172800000000     0.130600000000     0.150000000000    -0.0764534  
H1A      H      0.149936500000     0.146912500000     0.162299000000     0.0718695  
N2       N      0.157050000000     0.095100000000     0.121550000000    -0.0307791  
N3       N      0.025750000000     0.152400000000     0.131300000000    -0.0308669  
C1       C      0.259050000000     0.173550000000     0.187150000000     1.29175    
C6       C      0.456900000000     0.195700000000     0.166300000000     1.38329    
C5       C      0.203600000000     0.040050000000     0.077600000000     1.2651     
C3       C      0.250700000000     0.105650000000     0.130300000000     0.371047   
H3       H      0.288110500000     0.102497000000     0.126989500000    -0.103971   
C10      C      0.455200000000     0.079550000000     0.036750000000     1.33865    
C8       C      0.434900000000     0.141050000000     0.094400000000     0.405229   
H8       H      0.395578000000     0.143419500000     0.085959500000    -0.112646   
C2       C      0.229150000000     0.137350000000     0.156900000000    -0.391879   
C9       C      0.468900000000     0.114200000000     0.074300000000    -0.430203   
C7       C      0.471850000000     0.164400000000     0.130600000000    -0.425537   
C4       C      0.204700000000     0.079400000000     0.109450000000    -0.397605   
Al2      Al     0.250000000000     0.000000000000     0.000000000000     7.05847    
Al1      Al     0.132410000000     0.466775000000     0.032495000000     7.29653    
Al3      Al     0.000000000000     0.000000000000     0.000000000000     7.83134    
O4       O      0.188335000000     0.424445000000     0.059270000000    -1.74027    
O2       O      0.174970000000     0.484760000000     0.488220000000    -3.20222    
H2       H      0.155805500000     0.486216000000     0.456005000000     0.821269   
O7       O      0.093780000000     0.444465000000     0.079395000000    -1.77444    
O1       O      0.076445000000     0.007590000000     0.009370000000    -3.37183    
H1       H      0.088669000000     0.035581000000     0.001478500000     0.869273   
O5       O      0.334260000000     0.261305000000     0.172225000000    -1.72973    
O9       O      0.095570000000     0.326955000000     0.236360000000    -1.71598    
O3       O      0.270225000000     0.450610000000     0.043950000000    -1.68768    
O6       O      0.258945000000     0.288390000000     0.197550000000    -1.69579    
O10      O      0.004455000000     0.305485000000     0.219015000000    -1.88648    
O8       O      0.004605000000     0.469360000000     0.059785000000    -1.8617     
N4       N      0.477050000000     0.371400000000     0.152700000000    -0.0723784  
H4       H      0.448158500000     0.357657500000     0.159237000000     0.0928992  
N1       N      0.327200000000     0.380600000000     0.100000000000    -0.076654   
H1A      H      0.350063500000     0.396912500000     0.087701000000     0.0715993  
N2       N      0.342950000000     0.345100000000     0.128450000000    -0.0304865  
N3       N      0.474250000000     0.402400000000     0.118700000000    -0.0294809  
C1       C      0.240950000000     0.423550000000     0.062850000000     1.2858     
C6       C      0.043100000000     0.445700000000     0.083700000000     1.37633    
C5       C      0.296400000000     0.290050000000     0.172400000000     1.27167    
C3       C      0.249300000000     0.355650000000     0.119700000000     0.371325   
H3       H      0.211889500000     0.352497000000     0.123010500000    -0.104191   
C10      C      0.044800000000     0.329550000000     0.213250000000     1.3427     
C8       C      0.065100000000     0.391050000000     0.155600000000     0.406384   
H8       H      0.104422000000     0.393419500000     0.164040500000    -0.112578   
C2       C      0.270850000000     0.387350000000     0.093100000000    -0.390819   
C9       C      0.031100000000     0.364200000000     0.175700000000    -0.433071   
C7       C      0.028150000000     0.414400000000     0.119400000000    -0.426417   
C4       C      0.295300000000     0.329400000000     0.140550000000    -0.39908    
Al1      Al     0.132410000000     0.283225000000     0.282495000000     7.33746    
O4       O      0.188335000000     0.325555000000     0.309270000000    -1.7471     
O2       O      0.174970000000     0.265240000000     0.238220000000    -3.20214    
H2       H      0.155805500000     0.263784000000     0.206005000000     0.821062   
O7       O      0.093780000000     0.305535000000     0.329395000000    -1.78237    
O1       O      0.076445000000     0.242410000000     0.259370000000    -3.38948    
H1       H      0.088669000000     0.214419000000     0.251478500000     0.875464   
O5       O      0.334260000000     0.488695000000     0.422225000000    -1.72948    
O9       O      0.095570000000     0.423045000000     0.486360000000    -1.71603    
O3       O      0.270225000000     0.299390000000     0.293950000000    -1.69518    
O6       O      0.258945000000     0.461610000000     0.447550000000    -1.69577    
O10      O      0.004455000000     0.444515000000     0.469015000000    -1.88645    
O8       O      0.004605000000     0.280640000000     0.309785000000    -1.8704     
N4       N      0.477050000000     0.378600000000     0.402700000000    -0.0722613  
H4       H      0.448158500000     0.392342500000     0.409237000000     0.0930503  
N1       N      0.327200000000     0.369400000000     0.350000000000    -0.0763232  
H1A      H      0.350063500000     0.353087500000     0.337701000000     0.0722392  
N2       N      0.342950000000     0.404900000000     0.378450000000    -0.0301558  
N3       N      0.474250000000     0.347600000000     0.368700000000    -0.0287246  
C1       C      0.240950000000     0.326450000000     0.312850000000     1.29188    
C6       C      0.043100000000     0.304300000000     0.333700000000     1.38291    
C5       C      0.296400000000     0.459950000000     0.422400000000     1.2719     
C3       C      0.249300000000     0.394350000000     0.369700000000     0.372502   
H3       H      0.211889500000     0.397503000000     0.373010500000    -0.104196   
C10      C      0.044800000000     0.420450000000     0.463250000000     1.34292    
C8       C      0.065100000000     0.358950000000     0.405600000000     0.407678   
H8       H      0.104422000000     0.356580500000     0.414040500000    -0.112973   
C2       C      0.270850000000     0.362650000000     0.343100000000    -0.391892   
C9       C      0.031100000000     0.385800000000     0.425700000000    -0.433348   
C7       C      0.028150000000     0.335600000000     0.369400000000    -0.427909   
C4       C      0.295300000000     0.420600000000     0.390550000000    -0.3991     
Al1      Al     0.367590000000     0.033225000000     0.467505000000     7.32274    
O4       O      0.311665000000     0.075555000000     0.440730000000    -1.74429    
O2       O      0.325030000000     0.015240000000     0.011780000000    -3.19484    
H2       H      0.344194500000     0.013784000000     0.043995000000     0.818482   
O7       O      0.406220000000     0.055535000000     0.420605000000    -1.78       
O1       O      0.423555000000     0.492410000000     0.490630000000    -3.3936     
H1       H      0.411331000000     0.464419000000     0.498521500000     0.876991   
O5       O      0.165740000000     0.238695000000     0.327775000000    -1.72922    
O9       O      0.404430000000     0.173045000000     0.263640000000    -1.71654    
O3       O      0.229775000000     0.049390000000     0.456050000000    -1.69232    
O6       O      0.241055000000     0.211610000000     0.302450000000    -1.69569    
O10      O      0.495545000000     0.194515000000     0.280985000000    -1.88861    
O8       O      0.495395000000     0.030640000000     0.440215000000    -1.86914    
N4       N      0.022950000000     0.128600000000     0.347300000000    -0.0741844  
H4       H      0.051841500000     0.142342500000     0.340763000000     0.09285    
N1       N      0.172800000000     0.119400000000     0.400000000000    -0.0764504  
H1A      H      0.149936500000     0.103087500000     0.412299000000     0.0719189  
N2       N      0.157050000000     0.154900000000     0.371550000000    -0.0303683  
N3       N      0.025750000000     0.097600000000     0.381300000000    -0.0308798  
C1       C      0.259050000000     0.076450000000     0.437150000000     1.28961    
C6       C      0.456900000000     0.054300000000     0.416300000000     1.38081    
C5       C      0.203600000000     0.209950000000     0.327600000000     1.27169    
C3       C      0.250700000000     0.144350000000     0.380300000000     0.372044   
H3       H      0.288110500000     0.147503000000     0.376989500000    -0.10405    
C10      C      0.455200000000     0.170450000000     0.286750000000     1.34351    
C8       C      0.434900000000     0.108950000000     0.344400000000     0.405481   
H8       H      0.395578000000     0.106580500000     0.335959500000    -0.112317   
C2       C      0.229150000000     0.112650000000     0.406900000000    -0.391454   
C9       C      0.468900000000     0.135800000000     0.324300000000    -0.430741   
C7       C      0.471850000000     0.085600000000     0.380600000000    -0.424782   
C4       C      0.204700000000     0.170600000000     0.359450000000    -0.399004   
Al2      Al     0.250000000000     0.250000000000     0.750000000000     7.12409    
Al1      Al     0.367590000000     0.216775000000     0.717505000000     7.33946    
Al3      Al     0.000000000000     0.250000000000     0.750000000000     7.90365    
O4       O      0.311665000000     0.174445000000     0.690730000000    -1.74758    
O2       O      0.325030000000     0.234760000000     0.761780000000    -3.20264    
H2       H      0.344194500000     0.236216000000     0.793995000000     0.821676   
O7       O      0.406220000000     0.194465000000     0.670605000000    -1.78296    
O1       O      0.423555000000     0.257590000000     0.740630000000    -3.39356    
H1       H      0.411331000000     0.285581000000     0.748521500000     0.877003   
O5       O      0.165740000000     0.011305000000     0.577775000000    -1.73172    
O9       O      0.404430000000     0.076955000000     0.513640000000    -1.71331    
O3       O      0.229775000000     0.200610000000     0.706050000000    -1.69541    
O6       O      0.241055000000     0.038390000000     0.552450000000    -1.69324    
O10      O      0.495545000000     0.055485000000     0.530985000000    -1.88483    
O8       O      0.495395000000     0.219360000000     0.690215000000    -1.87254    
N4       N      0.022950000000     0.121400000000     0.597300000000    -0.0743428  
H4       H      0.051841500000     0.107657500000     0.590763000000     0.0928264  
N1       N      0.172800000000     0.130600000000     0.650000000000    -0.0763403  
H1A      H      0.149936500000     0.146912500000     0.662299000000     0.0719453  
N2       N      0.157050000000     0.095100000000     0.621550000000    -0.0304491  
N3       N      0.025750000000     0.152400000000     0.631300000000    -0.0307439  
C1       C      0.259050000000     0.173550000000     0.687150000000     1.29199    
C6       C      0.456900000000     0.195700000000     0.666300000000     1.38335    
C5       C      0.203600000000     0.040050000000     0.577600000000     1.27116    
C3       C      0.250700000000     0.105650000000     0.630300000000     0.372377   
H3       H      0.288110500000     0.102497000000     0.626989500000    -0.104293   
C10      C      0.455200000000     0.079550000000     0.536750000000     1.34087    
C8       C      0.434900000000     0.141050000000     0.594400000000     0.405385   
H8       H      0.395578000000     0.143419500000     0.585959500000    -0.112128   
C2       C      0.229150000000     0.137350000000     0.656900000000    -0.392134   
C9       C      0.468900000000     0.114200000000     0.574300000000    -0.430069   
C7       C      0.471850000000     0.164400000000     0.630600000000    -0.425234   
C4       C      0.204700000000     0.079400000000     0.609450000000    -0.399222   
Al2      Al     0.250000000000     0.000000000000     0.500000000000     7.10511    
Al1      Al     0.132410000000     0.466775000000     0.532495000000     7.33751    
Al3      Al     0.000000000000     0.000000000000     0.500000000000     7.8828     
O4       O      0.188335000000     0.424445000000     0.559270000000    -1.74715    
O2       O      0.174970000000     0.484760000000     0.988220000000    -3.17925    
H2       H      0.155805500000     0.486216000000     0.956005000000     0.816917   
O7       O      0.093780000000     0.444465000000     0.579395000000    -1.78242    
O1       O      0.076445000000     0.007590000000     0.509370000000    -3.3885     
H1       H      0.088669000000     0.035581000000     0.501478500000     0.875035   
O5       O      0.334260000000     0.261305000000     0.672225000000    -1.7295     
O9       O      0.095570000000     0.326955000000     0.736360000000    -1.71605    
O3       O      0.270225000000     0.450610000000     0.543950000000    -1.69525    
O6       O      0.258945000000     0.288390000000     0.697550000000    -1.69582    
O10      O      0.004455000000     0.305485000000     0.719015000000    -1.88647    
O8       O      0.004605000000     0.469360000000     0.559785000000    -1.87046    
N4       N      0.477050000000     0.371400000000     0.652700000000    -0.0722675  
H4       H      0.448158500000     0.357657500000     0.659237000000     0.0930194  
N1       N      0.327200000000     0.380600000000     0.600000000000    -0.0763267  
H1A      H      0.350063500000     0.396912500000     0.587701000000     0.0721921  
N2       N      0.342950000000     0.345100000000     0.628450000000    -0.0301836  
N3       N      0.474250000000     0.402400000000     0.618700000000    -0.0287586  
C1       C      0.240950000000     0.423550000000     0.562850000000     1.29188    
C6       C      0.043100000000     0.445700000000     0.583700000000     1.3829     
C5       C      0.296400000000     0.290050000000     0.672400000000     1.2719     
C3       C      0.249300000000     0.355650000000     0.619700000000     0.372499   
H3       H      0.211889500000     0.352497000000     0.623010500000    -0.104236   
C10      C      0.044800000000     0.329550000000     0.713250000000     1.3429     
C8       C      0.065100000000     0.391050000000     0.655600000000     0.407674   
H8       H      0.104422000000     0.393419500000     0.664040500000    -0.11301    
C2       C      0.270850000000     0.387350000000     0.593100000000    -0.391964   
C9       C      0.031100000000     0.364200000000     0.675700000000    -0.43339    
C7       C      0.028150000000     0.414400000000     0.619400000000    -0.427966   
C4       C      0.295300000000     0.329400000000     0.640550000000    -0.399151   
Al1      Al     0.132410000000     0.283225000000     0.782495000000     7.33745    
O4       O      0.188335000000     0.325555000000     0.809270000000    -1.74697    
O2       O      0.174970000000     0.265240000000     0.738220000000    -3.20225    
H2       H      0.155805500000     0.263784000000     0.706005000000     0.821247   
O7       O      0.093780000000     0.305535000000     0.829395000000    -1.78207    
O1       O      0.076445000000     0.242410000000     0.759370000000    -3.38944    
H1       H      0.088669000000     0.214419000000     0.751478500000     0.875444   
O5       O      0.334260000000     0.488695000000     0.922225000000    -1.73124    
O9       O      0.095570000000     0.423045000000     0.986360000000    -1.70385    
O3       O      0.270225000000     0.299390000000     0.793950000000    -1.6951     
O6       O      0.258945000000     0.461610000000     0.947550000000    -1.6856     
O10      O      0.004455000000     0.444515000000     0.969015000000    -1.87301    
O8       O      0.004605000000     0.280640000000     0.809785000000    -1.87016    
N4       N      0.477050000000     0.378600000000     0.902700000000    -0.0728209  
H4       H      0.448158500000     0.392342500000     0.909237000000     0.0936627  
N1       N      0.327200000000     0.369400000000     0.850000000000    -0.0763186  
H1A      H      0.350063500000     0.353087500000     0.837701000000     0.0724019  
N2       N      0.342950000000     0.404900000000     0.878450000000    -0.0300135  
N3       N      0.474250000000     0.347600000000     0.868700000000    -0.0285868  
C1       C      0.240950000000     0.326450000000     0.812850000000     1.29186    
C6       C      0.043100000000     0.304300000000     0.833700000000     1.38274    
C5       C      0.296400000000     0.459950000000     0.922400000000     1.27011    
C3       C      0.249300000000     0.394350000000     0.869700000000     0.371992   
H3       H      0.211889500000     0.397503000000     0.873010500000    -0.103674   
C10      C      0.044800000000     0.420450000000     0.963250000000     1.33607    
C8       C      0.065100000000     0.358950000000     0.905600000000     0.405952   
H8       H      0.104422000000     0.356580500000     0.914040500000    -0.111516   
C2       C      0.270850000000     0.362650000000     0.843100000000    -0.391401   
C9       C      0.031100000000     0.385800000000     0.925700000000    -0.429901   
C7       C      0.028150000000     0.335600000000     0.869400000000    -0.426875   
C4       C      0.295300000000     0.420600000000     0.890550000000    -0.397889   
Al1      Al     0.367590000000     0.033225000000     0.967505000000     7.34247    
O4       O      0.311665000000     0.075555000000     0.940730000000    -1.74468    
O2       O      0.325030000000     0.015240000000     0.511780000000    -3.19628    
H2       H      0.344194500000     0.013784000000     0.543995000000     0.819327   
O7       O      0.406220000000     0.055535000000     0.920605000000    -1.78112    
O1       O      0.423555000000     0.492410000000     0.990630000000    -3.38379    
H1       H      0.411331000000     0.464419000000     0.998521500000     0.877058   
O5       O      0.165740000000     0.238695000000     0.827775000000    -1.72887    
O9       O      0.404430000000     0.173045000000     0.763640000000    -1.71656    
O3       O      0.229775000000     0.049390000000     0.956050000000    -1.68187    
O6       O      0.241055000000     0.211610000000     0.802450000000    -1.69562    
O10      O      0.495545000000     0.194515000000     0.780985000000    -1.88853    
O8       O      0.495395000000     0.030640000000     0.940215000000    -1.85773    
N4       N      0.022950000000     0.128600000000     0.847300000000    -0.0741436  
H4       H      0.051841500000     0.142342500000     0.840763000000     0.093064   
N1       N      0.172800000000     0.119400000000     0.900000000000    -0.0767466  
H1A      H      0.149936500000     0.103087500000     0.912299000000     0.0730102  
N2       N      0.157050000000     0.154900000000     0.871550000000    -0.0300272  
N3       N      0.025750000000     0.097600000000     0.881300000000    -0.0304536  
C1       C      0.259050000000     0.076450000000     0.937150000000     1.2877     
C6       C      0.456900000000     0.054300000000     0.916300000000     1.37858    
C5       C      0.203600000000     0.209950000000     0.827600000000     1.27172    
C3       C      0.250700000000     0.144350000000     0.880300000000     0.371608   
H3       H      0.288110500000     0.147503000000     0.876989500000    -0.103406   
C10      C      0.455200000000     0.170450000000     0.786750000000     1.34348    
C8       C      0.434900000000     0.108950000000     0.844400000000     0.405089   
H8       H      0.395578000000     0.106580500000     0.835959500000    -0.112062   
C2       C      0.229150000000     0.112650000000     0.906900000000    -0.389744   
C9       C      0.468900000000     0.135800000000     0.824300000000    -0.430411   
C7       C      0.471850000000     0.085600000000     0.880600000000    -0.423381   
C4       C      0.204700000000     0.170600000000     0.859450000000    -0.398456   
Al2      Al     0.250000000000     0.750000000000     0.250000000000     7.12382    
Al1      Al     0.367590000000     0.716775000000     0.217505000000     7.33934    
Al3      Al     0.000000000000     0.750000000000     0.250000000000     7.90367    
O4       O      0.311665000000     0.674445000000     0.190730000000    -1.74752    
O2       O      0.325030000000     0.734760000000     0.261780000000    -3.20248    
H2       H      0.344194500000     0.736216000000     0.293995000000     0.821432   
O7       O      0.406220000000     0.694465000000     0.170605000000    -1.78312    
O1       O      0.423555000000     0.757590000000     0.240630000000    -3.3936     
H1       H      0.411331000000     0.785581000000     0.248521500000     0.877054   
O5       O      0.165740000000     0.511305000000     0.077775000000    -1.72112    
O9       O      0.404430000000     0.576955000000     0.013640000000    -1.72211    
O3       O      0.229775000000     0.700610000000     0.206050000000    -1.69539    
O6       O      0.241055000000     0.538390000000     0.052450000000    -1.68782    
O10      O      0.495545000000     0.555485000000     0.030985000000    -1.8815     
O8       O      0.495395000000     0.719360000000     0.190215000000    -1.87271    
N4       N      0.022950000000     0.621400000000     0.097300000000    -0.0742919  
H4       H      0.051841500000     0.607657500000     0.090763000000     0.0926304  
N1       N      0.172800000000     0.630600000000     0.150000000000    -0.0764316  
H1A      H      0.149936500000     0.646912500000     0.162299000000     0.0719203  
N2       N      0.157050000000     0.595100000000     0.121550000000    -0.0306792  
N3       N      0.025750000000     0.652400000000     0.131300000000    -0.0308088  
C1       C      0.259050000000     0.673550000000     0.187150000000     1.29176    
C6       C      0.456900000000     0.695700000000     0.166300000000     1.38337    
C5       C      0.203600000000     0.540050000000     0.077600000000     1.26569    
C3       C      0.250700000000     0.605650000000     0.130300000000     0.371195   
H3       H      0.288110500000     0.602497000000     0.126989500000    -0.10391    
C10      C      0.455200000000     0.579550000000     0.036750000000     1.34135    
C8       C      0.434900000000     0.641050000000     0.094400000000     0.405821   
H8       H      0.395578000000     0.643419500000     0.085959500000    -0.11289    
C2       C      0.229150000000     0.637350000000     0.156900000000    -0.391847   
C9       C      0.468900000000     0.614200000000     0.074300000000    -0.431006   
C7       C      0.471850000000     0.664400000000     0.130600000000    -0.425704   
C4       C      0.204700000000     0.579400000000     0.109450000000    -0.397572   
Al2      Al     0.250000000000     0.500000000000     0.000000000000     7.07735    
Al1      Al     0.132410000000     0.966775000000     0.032495000000     7.3046     
Al3      Al     0.000000000000     0.500000000000     0.000000000000     7.85223    
O4       O      0.188335000000     0.924445000000     0.059270000000    -1.74085    
O2       O      0.174970000000     0.984760000000     0.488220000000    -3.19863    
H2       H      0.155805500000     0.986216000000     0.456005000000     0.821293   
O7       O      0.093780000000     0.944465000000     0.079395000000    -1.77458    
O1       O      0.076445000000     0.507590000000     0.009370000000    -3.37282    
H1       H      0.088669000000     0.535581000000     0.001478500000     0.869742   
O5       O      0.334260000000     0.761305000000     0.172225000000    -1.72975    
O9       O      0.095570000000     0.826955000000     0.236360000000    -1.71587    
O3       O      0.270225000000     0.950610000000     0.043950000000    -1.6834     
O6       O      0.258945000000     0.788390000000     0.197550000000    -1.69575    
O10      O      0.004455000000     0.805485000000     0.219015000000    -1.88644    
O8       O      0.004605000000     0.969360000000     0.059785000000    -1.85688    
N4       N      0.477050000000     0.871400000000     0.152700000000    -0.072371   
H4       H      0.448158500000     0.857657500000     0.159237000000     0.0929996  
N1       N      0.327200000000     0.880600000000     0.100000000000    -0.0767713  
H1A      H      0.350063500000     0.896912500000     0.087701000000     0.0719158  
N2       N      0.342950000000     0.845100000000     0.128450000000    -0.0304331  
N3       N      0.474250000000     0.902400000000     0.118700000000    -0.029372   
C1       C      0.240950000000     0.923550000000     0.062850000000     1.28498    
C6       C      0.043100000000     0.945700000000     0.083700000000     1.37539    
C5       C      0.296400000000     0.790050000000     0.172400000000     1.27164    
C3       C      0.249300000000     0.855650000000     0.119700000000     0.371159   
H3       H      0.211889500000     0.852497000000     0.123010500000    -0.104066   
C10      C      0.044800000000     0.829550000000     0.213250000000     1.34267    
C8       C      0.065100000000     0.891050000000     0.155600000000     0.406194   
H8       H      0.104422000000     0.893419500000     0.164040500000    -0.112267   
C2       C      0.270850000000     0.887350000000     0.093100000000    -0.390256   
C9       C      0.031100000000     0.864200000000     0.175700000000    -0.432844   
C7       C      0.028150000000     0.914400000000     0.119400000000    -0.425754   
C4       C      0.295300000000     0.829400000000     0.140550000000    -0.398974   
Al1      Al     0.132410000000     0.783225000000     0.282495000000     7.33738    
O4       O      0.188335000000     0.825555000000     0.309270000000    -1.74699    
O2       O      0.174970000000     0.765240000000     0.238220000000    -3.20211    
H2       H      0.155805500000     0.763784000000     0.206005000000     0.821038   
O7       O      0.093780000000     0.805535000000     0.329395000000    -1.78232    
O1       O      0.076445000000     0.742410000000     0.259370000000    -3.38948    
H1       H      0.088669000000     0.714419000000     0.251478500000     0.875493   
O5       O      0.334260000000     0.988695000000     0.422225000000    -1.72439    
O9       O      0.095570000000     0.923045000000     0.486360000000    -1.71662    
O3       O      0.270225000000     0.799390000000     0.293950000000    -1.69512    
O6       O      0.258945000000     0.961610000000     0.447550000000    -1.69094    
O10      O      0.004455000000     0.944515000000     0.469015000000    -1.88193    
O8       O      0.004605000000     0.780640000000     0.309785000000    -1.8704     
N4       N      0.477050000000     0.878600000000     0.402700000000    -0.0723522  
H4       H      0.448158500000     0.892342500000     0.409237000000     0.0932411  
N1       N      0.327200000000     0.869400000000     0.350000000000    -0.0763442  
H1A      H      0.350063500000     0.853087500000     0.337701000000     0.0723311  
N2       N      0.342950000000     0.904900000000     0.378450000000    -0.0301237  
N3       N      0.474250000000     0.847600000000     0.368700000000    -0.0286611  
C1       C      0.240950000000     0.826450000000     0.312850000000     1.29179    
C6       C      0.043100000000     0.804300000000     0.333700000000     1.3829     
C5       C      0.296400000000     0.959950000000     0.422400000000     1.2693     
C3       C      0.249300000000     0.894350000000     0.369700000000     0.371903   
H3       H      0.211889500000     0.897503000000     0.373010500000    -0.103781   
C10      C      0.044800000000     0.920450000000     0.463250000000     1.34194    
C8       C      0.065100000000     0.858950000000     0.405600000000     0.407511   
H8       H      0.104422000000     0.856580500000     0.414040500000    -0.112856   
C2       C      0.270850000000     0.862650000000     0.343100000000    -0.391548   
C9       C      0.031100000000     0.885800000000     0.425700000000    -0.432825   
C7       C      0.028150000000     0.835600000000     0.369400000000    -0.427795   
C4       C      0.295300000000     0.920600000000     0.390550000000    -0.397905   
Al1      Al     0.367590000000     0.533225000000     0.467505000000     7.33945    
O4       O      0.311665000000     0.575555000000     0.440730000000    -1.7475     
O2       O      0.325030000000     0.515240000000     0.011780000000    -3.20113    
H2       H      0.344194500000     0.513784000000     0.043995000000     0.82058    
O7       O      0.406220000000     0.555535000000     0.420605000000    -1.78293    
O1       O      0.423555000000     0.992410000000     0.490630000000    -3.38382    
H1       H      0.411331000000     0.964419000000     0.498521500000     0.875118   
O5       O      0.165740000000     0.738695000000     0.327775000000    -1.72925    
O9       O      0.404430000000     0.673045000000     0.263640000000    -1.71649    
O3       O      0.229775000000     0.549390000000     0.456050000000    -1.69535    
O6       O      0.241055000000     0.711610000000     0.302450000000    -1.69568    
O10      O      0.495545000000     0.694515000000     0.280985000000    -1.88861    
O8       O      0.495395000000     0.530640000000     0.440215000000    -1.87253    
N4       N      0.022950000000     0.628600000000     0.347300000000    -0.0741468  
H4       H      0.051841500000     0.642342500000     0.340763000000     0.0929046  
N1       N      0.172800000000     0.619400000000     0.400000000000    -0.0763151  
H1A      H      0.149936500000     0.603087500000     0.412299000000     0.0720356  
N2       N      0.157050000000     0.654900000000     0.371550000000    -0.0303268  
N3       N      0.025750000000     0.597600000000     0.381300000000    -0.0306531  
C1       C      0.259050000000     0.576450000000     0.437150000000     1.29202    
C6       C      0.456900000000     0.554300000000     0.416300000000     1.38345    
C5       C      0.203600000000     0.709950000000     0.327600000000     1.27174    
C3       C      0.250700000000     0.644350000000     0.380300000000     0.372529   
H3       H      0.288110500000     0.647503000000     0.376989500000    -0.104196   
C10      C      0.455200000000     0.670450000000     0.286750000000     1.34357    
C8       C      0.434900000000     0.608950000000     0.344400000000     0.405978   
H8       H      0.395578000000     0.606580500000     0.335959500000    -0.112314   
C2       C      0.229150000000     0.612650000000     0.406900000000    -0.392042   
C9       C      0.468900000000     0.635800000000     0.324300000000    -0.430804   
C7       C      0.471850000000     0.585600000000     0.380600000000    -0.425337   
C4       C      0.204700000000     0.670600000000     0.359450000000    -0.399139   
Al2      Al     0.250000000000     0.750000000000     0.750000000000     7.12401    
Al1      Al     0.367590000000     0.716775000000     0.717505000000     7.33944    
Al3      Al     0.000000000000     0.750000000000     0.750000000000     7.90363    
O4       O      0.311665000000     0.674445000000     0.690730000000    -1.74753    
O2       O      0.325030000000     0.734760000000     0.761780000000    -3.20261    
H2       H      0.344194500000     0.736216000000     0.793995000000     0.821653   
O7       O      0.406220000000     0.694465000000     0.670605000000    -1.78297    
O1       O      0.423555000000     0.757590000000     0.740630000000    -3.39358    
H1       H      0.411331000000     0.785581000000     0.748521500000     0.877043   
O5       O      0.165740000000     0.511305000000     0.577775000000    -1.72929    
O9       O      0.404430000000     0.576955000000     0.513640000000    -1.71656    
O3       O      0.229775000000     0.700610000000     0.706050000000    -1.69539    
O6       O      0.241055000000     0.538390000000     0.552450000000    -1.69575    
O10      O      0.495545000000     0.555485000000     0.530985000000    -1.88866    
O8       O      0.495395000000     0.719360000000     0.690215000000    -1.87257    
N4       N      0.022950000000     0.621400000000     0.597300000000    -0.0741504  
H4       H      0.051841500000     0.607657500000     0.590763000000     0.0928679  
N1       N      0.172800000000     0.630600000000     0.650000000000    -0.0763184  
H1A      H      0.149936500000     0.646912500000     0.662299000000     0.0719962  
N2       N      0.157050000000     0.595100000000     0.621550000000    -0.0303491  
N3       N      0.025750000000     0.652400000000     0.631300000000    -0.0306857  
C1       C      0.259050000000     0.673550000000     0.687150000000     1.29201    
C6       C      0.456900000000     0.695700000000     0.666300000000     1.38343    
C5       C      0.203600000000     0.540050000000     0.577600000000     1.27175    
C3       C      0.250700000000     0.605650000000     0.630300000000     0.372526   
H3       H      0.288110500000     0.602497000000     0.626989500000    -0.104233   
C10      C      0.455200000000     0.579550000000     0.536750000000     1.34357    
C8       C      0.434900000000     0.641050000000     0.594400000000     0.405977   
H8       H      0.395578000000     0.643419500000     0.585959500000    -0.112372   
C2       C      0.229150000000     0.637350000000     0.656900000000    -0.392102   
C9       C      0.468900000000     0.614200000000     0.574300000000    -0.430873   
C7       C      0.471850000000     0.664400000000     0.630600000000    -0.4254     
C4       C      0.204700000000     0.579400000000     0.609450000000    -0.399189   
Al2      Al     0.250000000000     0.500000000000     0.500000000000     7.12401    
Al1      Al     0.132410000000     0.966775000000     0.532495000000     7.34558    
Al3      Al     0.000000000000     0.500000000000     0.500000000000     7.90371    
O4       O      0.188335000000     0.924445000000     0.559270000000    -1.74773    
O2       O      0.174970000000     0.984760000000     0.988220000000    -3.17567    
H2       H      0.155805500000     0.986216000000     0.956005000000     0.816942   
O7       O      0.093780000000     0.944465000000     0.579395000000    -1.78256    
O1       O      0.076445000000     0.507590000000     0.509370000000    -3.38949    
H1       H      0.088669000000     0.535581000000     0.501478500000     0.875505   
O5       O      0.334260000000     0.761305000000     0.672225000000    -1.72952    
O9       O      0.095570000000     0.826955000000     0.736360000000    -1.71593    
O3       O      0.270225000000     0.950610000000     0.543950000000    -1.69097    
O6       O      0.258945000000     0.788390000000     0.697550000000    -1.69577    
O10      O      0.004455000000     0.805485000000     0.719015000000    -1.88643    
O8       O      0.004605000000     0.969360000000     0.559785000000    -1.86563    
N4       N      0.477050000000     0.871400000000     0.652700000000    -0.0722602  
H4       H      0.448158500000     0.857657500000     0.659237000000     0.0931199  
N1       N      0.327200000000     0.880600000000     0.600000000000    -0.0764441  
H1A      H      0.350063500000     0.896912500000     0.587701000000     0.0725087  
N2       N      0.342950000000     0.845100000000     0.628450000000    -0.0301301  
N3       N      0.474250000000     0.902400000000     0.618700000000    -0.0286498  
C1       C      0.240950000000     0.923550000000     0.562850000000     1.29106    
C6       C      0.043100000000     0.945700000000     0.583700000000     1.38196    
C5       C      0.296400000000     0.790050000000     0.672400000000     1.27187    
C3       C      0.249300000000     0.855650000000     0.619700000000     0.372334   
H3       H      0.211889500000     0.852497000000     0.623010500000    -0.104111   
C10      C      0.044800000000     0.829550000000     0.713250000000     1.34287    
C8       C      0.065100000000     0.891050000000     0.655600000000     0.407484   
H8       H      0.104422000000     0.893419500000     0.664040500000    -0.112699   
C2       C      0.270850000000     0.887350000000     0.593100000000    -0.3914     
C9       C      0.031100000000     0.864200000000     0.675700000000    -0.433163   
C7       C      0.028150000000     0.914400000000     0.619400000000    -0.427303   
C4       C      0.295300000000     0.829400000000     0.640550000000    -0.399045   
Al1      Al     0.132410000000     0.783225000000     0.782495000000     7.33738    
O4       O      0.188335000000     0.825555000000     0.809270000000    -1.74686    
O2       O      0.174970000000     0.765240000000     0.738220000000    -3.20221    
H2       H      0.155805500000     0.763784000000     0.706005000000     0.821223   
O7       O      0.093780000000     0.805535000000     0.829395000000    -1.78203    
O1       O      0.076445000000     0.742410000000     0.759370000000    -3.38944    
H1       H      0.088669000000     0.714419000000     0.751478500000     0.875473   
O5       O      0.334260000000     0.988695000000     0.922225000000    -1.72615    
O9       O      0.095570000000     0.923045000000     0.986360000000    -1.70445    
O3       O      0.270225000000     0.799390000000     0.793950000000    -1.69504    
O6       O      0.258945000000     0.961610000000     0.947550000000    -1.68078    
O10      O      0.004455000000     0.944515000000     0.969015000000    -1.8685     
O8       O      0.004605000000     0.780640000000     0.809785000000    -1.87016    
N4       N      0.477050000000     0.878600000000     0.902700000000    -0.0729116  
H4       H      0.448158500000     0.892342500000     0.909237000000     0.0938534  
N1       N      0.327200000000     0.869400000000     0.850000000000    -0.0763395  
H1A      H      0.350063500000     0.853087500000     0.837701000000     0.0724938  
N2       N      0.342950000000     0.904900000000     0.878450000000    -0.0299814  
N3       N      0.474250000000     0.847600000000     0.868700000000    -0.0285234  
C1       C      0.240950000000     0.826450000000     0.812850000000     1.29177    
C6       C      0.043100000000     0.804300000000     0.833700000000     1.38272    
C5       C      0.296400000000     0.959950000000     0.922400000000     1.26751    
C3       C      0.249300000000     0.894350000000     0.869700000000     0.371393   
H3       H      0.211889500000     0.897503000000     0.873010500000    -0.10326    
C10      C      0.044800000000     0.920450000000     0.963250000000     1.33509    
C8       C      0.065100000000     0.858950000000     0.905600000000     0.405786   
H8       H      0.104422000000     0.856580500000     0.914040500000    -0.111399   
C2       C      0.270850000000     0.862650000000     0.843100000000    -0.391056   
C9       C      0.031100000000     0.885800000000     0.925700000000    -0.429378   
C7       C      0.028150000000     0.835600000000     0.869400000000    -0.426761   
C4       C      0.295300000000     0.920600000000     0.890550000000    -0.396694   
Al1      Al     0.367590000000     0.533225000000     0.967505000000     7.35917    
O4       O      0.311665000000     0.575555000000     0.940730000000    -1.74789    
O2       O      0.325030000000     0.515240000000     0.511780000000    -3.20257    
H2       H      0.344194500000     0.513784000000     0.543995000000     0.821427   
O7       O      0.406220000000     0.555535000000     0.920605000000    -1.78405    
O1       O      0.423555000000     0.992410000000     0.990630000000    -3.37402    
H1       H      0.411331000000     0.964419000000     0.998521500000     0.875186   
O5       O      0.165740000000     0.738695000000     0.827775000000    -1.7289     
O9       O      0.404430000000     0.673045000000     0.763640000000    -1.71651    
O3       O      0.229775000000     0.549390000000     0.956050000000    -1.6849     
O6       O      0.241055000000     0.711610000000     0.802450000000    -1.69561    
O10      O      0.495545000000     0.694515000000     0.780985000000    -1.88853    
O8       O      0.495395000000     0.530640000000     0.940215000000    -1.86111    
N4       N      0.022950000000     0.628600000000     0.847300000000    -0.074106   
H4       H      0.051841500000     0.642342500000     0.840763000000     0.0931187  
N1       N      0.172800000000     0.619400000000     0.900000000000    -0.0766114  
H1A      H      0.149936500000     0.603087500000     0.912299000000     0.073127   
N2       N      0.157050000000     0.654900000000     0.871550000000    -0.0299857  
N3       N      0.025750000000     0.597600000000     0.881300000000    -0.0302269  
C1       C      0.259050000000     0.576450000000     0.937150000000     1.29011    
C6       C      0.456900000000     0.554300000000     0.916300000000     1.38121    
C5       C      0.203600000000     0.709950000000     0.827600000000     1.27176    
C3       C      0.250700000000     0.644350000000     0.880300000000     0.372093   
H3       H      0.288110500000     0.647503000000     0.876989500000    -0.103552   
C10      C      0.455200000000     0.670450000000     0.786750000000     1.34354    
C8       C      0.434900000000     0.608950000000     0.844400000000     0.405585   
H8       H      0.395578000000     0.606580500000     0.835959500000    -0.112059   
C2       C      0.229150000000     0.612650000000     0.906900000000    -0.390332   
C9       C      0.468900000000     0.635800000000     0.824300000000    -0.430474   
C7       C      0.471850000000     0.585600000000     0.880600000000    -0.423936   
C4       C      0.204700000000     0.670600000000     0.859450000000    -0.398591   
Al2      Al     0.750000000000     0.250000000000     0.250000000000     7.12395    
Al1      Al     0.867590000000     0.216775000000     0.217505000000     7.33691    
Al3      Al     0.500000000000     0.250000000000     0.250000000000     7.9235     
O4       O      0.811665000000     0.174445000000     0.190730000000    -1.74712    
O2       O      0.825030000000     0.234760000000     0.261780000000    -3.2021     
H2       H      0.844194500000     0.236216000000     0.293995000000     0.821542   
O7       O      0.906220000000     0.194465000000     0.170605000000    -1.78166    
O1       O      0.923555000000     0.257590000000     0.240630000000    -3.3882     
H1       H      0.911331000000     0.285581000000     0.248521500000     0.876341   
O5       O      0.665740000000     0.011305000000     0.077775000000    -1.72377    
O9       O      0.904430000000     0.076955000000     0.013640000000    -1.71744    
O3       O      0.729775000000     0.200610000000     0.206050000000    -1.6953     
O6       O      0.741055000000     0.038390000000     0.052450000000    -1.68534    
O10      O      0.995545000000     0.055485000000     0.030985000000    -1.87204    
O8       O      0.995395000000     0.219360000000     0.190215000000    -1.86712    
N4       N      0.522950000000     0.121400000000     0.097300000000    -0.0726046  
H4       H      0.551841500000     0.107657500000     0.090763000000     0.0927264  
N1       N      0.672800000000     0.130600000000     0.150000000000    -0.0764683  
H1A      H      0.649936500000     0.146912500000     0.162299000000     0.0720344  
N2       N      0.657050000000     0.095100000000     0.121550000000    -0.0306363  
N3       N      0.525750000000     0.152400000000     0.131300000000    -0.02896    
C1       C      0.759050000000     0.173550000000     0.187150000000     1.29158    
C6       C      0.956900000000     0.195700000000     0.166300000000     1.38063    
C5       C      0.703600000000     0.040050000000     0.077600000000     1.26524    
C3       C      0.750700000000     0.105650000000     0.130300000000     0.370996   
H3       H      0.788110500000     0.102497000000     0.126989500000    -0.10389    
C10      C      0.955200000000     0.079550000000     0.036750000000     1.33595    
C8       C      0.934900000000     0.141050000000     0.094400000000     0.402301   
H8       H      0.895578000000     0.143419500000     0.085959500000    -0.111471   
C2       C      0.729150000000     0.137350000000     0.156900000000    -0.39174    
C9       C      0.968900000000     0.114200000000     0.074300000000    -0.426304   
C7       C      0.971850000000     0.164400000000     0.130600000000    -0.421677   
C4       C      0.704700000000     0.079400000000     0.109450000000    -0.397543   
Al2      Al     0.750000000000     0.000000000000     0.000000000000     7.05853    
Al1      Al     0.632410000000     0.466775000000     0.032495000000     7.29842    
Al3      Al     0.500000000000     0.000000000000     0.000000000000     7.85109    
O4       O      0.688335000000     0.424445000000     0.059270000000    -1.7406     
O2       O      0.674970000000     0.484760000000     0.488220000000    -3.20258    
H2       H      0.655805500000     0.486216000000     0.456005000000     0.821452   
O7       O      0.593780000000     0.444465000000     0.079395000000    -1.77496    
O1       O      0.576445000000     0.007590000000     0.009370000000    -3.37593    
H1       H      0.588669000000     0.035581000000     0.001478500000     0.870741   
O5       O      0.834260000000     0.261305000000     0.172225000000    -1.72922    
O9       O      0.595570000000     0.326955000000     0.236360000000    -1.71649    
O3       O      0.770225000000     0.450610000000     0.043950000000    -1.68765    
O6       O      0.758945000000     0.288390000000     0.197550000000    -1.69571    
O10      O      0.504455000000     0.305485000000     0.219015000000    -1.88866    
O8       O      0.504605000000     0.469360000000     0.059785000000    -1.86378    
N4       N      0.977050000000     0.371400000000     0.152700000000    -0.0707677  
H4       H      0.948158500000     0.357657500000     0.159237000000     0.0931626  
N1       N      0.827200000000     0.380600000000     0.100000000000    -0.0766656  
H1A      H      0.850063500000     0.396912500000     0.087701000000     0.0718488  
N2       N      0.842950000000     0.345100000000     0.128450000000    -0.0302874  
N3       N      0.974250000000     0.402400000000     0.118700000000    -0.0277084  
C1       C      0.740950000000     0.423550000000     0.062850000000     1.28592    
C6       C      0.543100000000     0.445700000000     0.083700000000     1.37686    
C5       C      0.796400000000     0.290050000000     0.172400000000     1.27156    
C3       C      0.749300000000     0.355650000000     0.119700000000     0.371285   
H3       H      0.711889500000     0.352497000000     0.123010500000    -0.104127   
C10      C      0.544800000000     0.329550000000     0.213250000000     1.34335    
C8       C      0.565100000000     0.391050000000     0.155600000000     0.40468    
H8       H      0.604422000000     0.393419500000     0.164040500000    -0.111919   
C2       C      0.770850000000     0.387350000000     0.093100000000    -0.390728   
C9       C      0.531100000000     0.364200000000     0.175700000000    -0.430533   
C7       C      0.528150000000     0.414400000000     0.119400000000    -0.423823   
C4       C      0.795300000000     0.329400000000     0.140550000000    -0.398919   
Al1      Al     0.632410000000     0.283225000000     0.282495000000     7.33935    
O4       O      0.688335000000     0.325555000000     0.309270000000    -1.74743    
O2       O      0.674970000000     0.265240000000     0.238220000000    -3.20251    
H2       H      0.655805500000     0.263784000000     0.206005000000     0.821245   
O7       O      0.593780000000     0.305535000000     0.329395000000    -1.78289    
O1       O      0.576445000000     0.242410000000     0.259370000000    -3.39358    
H1       H      0.588669000000     0.214419000000     0.251478500000     0.876937   
O5       O      0.834260000000     0.488695000000     0.422225000000    -1.72896    
O9       O      0.595570000000     0.423045000000     0.486360000000    -1.71653    
O3       O      0.770225000000     0.299390000000     0.293950000000    -1.69515    
O6       O      0.758945000000     0.461610000000     0.447550000000    -1.69568    
O10      O      0.504455000000     0.444515000000     0.469015000000    -1.88863    
O8       O      0.504605000000     0.280640000000     0.309785000000    -1.87249    
N4       N      0.977050000000     0.378600000000     0.402700000000    -0.0706502  
H4       H      0.948158500000     0.392342500000     0.409237000000     0.0933136  
N1       N      0.827200000000     0.369400000000     0.350000000000    -0.0763348  
H1A      H      0.850063500000     0.353087500000     0.337701000000     0.0724885  
N2       N      0.842950000000     0.404900000000     0.378450000000    -0.0299567  
N3       N      0.974250000000     0.347600000000     0.368700000000    -0.0269516  
C1       C      0.740950000000     0.326450000000     0.312850000000     1.292      
C6       C      0.543100000000     0.304300000000     0.333700000000     1.38345    
C5       C      0.796400000000     0.459950000000     0.422400000000     1.27179    
C3       C      0.749300000000     0.394350000000     0.369700000000     0.372463   
H3       H      0.711889500000     0.397503000000     0.373010500000    -0.104132   
C10      C      0.544800000000     0.420450000000     0.463250000000     1.34357    
C8       C      0.565100000000     0.358950000000     0.405600000000     0.405974   
H8       H      0.604422000000     0.356580500000     0.414040500000    -0.112314   
C2       C      0.770850000000     0.362650000000     0.343100000000    -0.391801   
C9       C      0.531100000000     0.385800000000     0.425700000000    -0.430809   
C7       C      0.528150000000     0.335600000000     0.369400000000    -0.425314   
C4       C      0.795300000000     0.420600000000     0.390550000000    -0.398939   
Al1      Al     0.867590000000     0.033225000000     0.467505000000     7.32029    
O4       O      0.811665000000     0.075555000000     0.440730000000    -1.74384    
O2       O      0.825030000000     0.015240000000     0.011780000000    -3.19444    
H2       H      0.844194500000     0.013784000000     0.043995000000     0.818567   
O7       O      0.906220000000     0.055535000000     0.420605000000    -1.77854    
O1       O      0.923555000000     0.492410000000     0.490630000000    -3.38821    
H1       H      0.911331000000     0.464419000000     0.498521500000     0.876316   
O5       O      0.665740000000     0.238695000000     0.327775000000    -1.72943    
O9       O      0.904430000000     0.173045000000     0.263640000000    -1.71512    
O3       O      0.729775000000     0.049390000000     0.456050000000    -1.69222    
O6       O      0.741055000000     0.211610000000     0.302450000000    -1.69572    
O10      O      0.995545000000     0.194515000000     0.280985000000    -1.88297    
O8       O      0.995395000000     0.030640000000     0.440215000000    -1.86358    
N4       N      0.522950000000     0.128600000000     0.347300000000    -0.0723033  
H4       H      0.551841500000     0.142342500000     0.340763000000     0.0929877  
N1       N      0.672800000000     0.119400000000     0.400000000000    -0.0764653  
H1A      H      0.649936500000     0.103087500000     0.412299000000     0.072084   
N2       N      0.657050000000     0.154900000000     0.371550000000    -0.0302253  
N3       N      0.525750000000     0.097600000000     0.381300000000    -0.0289719  
C1       C      0.759050000000     0.076450000000     0.437150000000     1.28943    
C6       C      0.956900000000     0.054300000000     0.416300000000     1.37816    
C5       C      0.703600000000     0.209950000000     0.327600000000     1.27183    
C3       C      0.750700000000     0.144350000000     0.380300000000     0.371992   
H3       H      0.788110500000     0.147503000000     0.376989500000    -0.103969   
C10      C      0.955200000000     0.170450000000     0.286750000000     1.34081    
C8       C      0.934900000000     0.108950000000     0.344400000000     0.402551   
H8       H      0.895578000000     0.106580500000     0.335959500000    -0.111142   
C2       C      0.729150000000     0.112650000000     0.406900000000    -0.391315   
C9       C      0.968900000000     0.135800000000     0.324300000000    -0.426839   
C7       C      0.971850000000     0.085600000000     0.380600000000    -0.420921   
C4       C      0.704700000000     0.170600000000     0.359450000000    -0.398942   
Al2      Al     0.750000000000     0.250000000000     0.750000000000     7.12414    
Al1      Al     0.867590000000     0.216775000000     0.717505000000     7.33701    
Al3      Al     0.500000000000     0.250000000000     0.750000000000     7.92345    
O4       O      0.811665000000     0.174445000000     0.690730000000    -1.74713    
O2       O      0.825030000000     0.234760000000     0.761780000000    -3.20224    
H2       H      0.844194500000     0.236216000000     0.793995000000     0.821762   
O7       O      0.906220000000     0.194465000000     0.670605000000    -1.78151    
O1       O      0.923555000000     0.257590000000     0.740630000000    -3.38818    
H1       H      0.911331000000     0.285581000000     0.748521500000     0.876329   
O5       O      0.665740000000     0.011305000000     0.577775000000    -1.73194    
O9       O      0.904430000000     0.076955000000     0.513640000000    -1.7119     
O3       O      0.729775000000     0.200610000000     0.706050000000    -1.69531    
O6       O      0.741055000000     0.038390000000     0.552450000000    -1.69327    
O10      O      0.995545000000     0.055485000000     0.530985000000    -1.87919    
O8       O      0.995395000000     0.219360000000     0.690215000000    -1.86698    
N4       N      0.522950000000     0.121400000000     0.597300000000    -0.0724621  
H4       H      0.551841500000     0.107657500000     0.590763000000     0.0929643  
N1       N      0.672800000000     0.130600000000     0.650000000000    -0.0763552  
H1A      H      0.649936500000     0.146912500000     0.662299000000     0.0721103  
N2       N      0.657050000000     0.095100000000     0.621550000000    -0.0303061  
N3       N      0.525750000000     0.152400000000     0.631300000000    -0.0288367  
C1       C      0.759050000000     0.173550000000     0.687150000000     1.29182    
C6       C      0.956900000000     0.195700000000     0.666300000000     1.38069    
C5       C      0.703600000000     0.040050000000     0.577600000000     1.27131    
C3       C      0.750700000000     0.105650000000     0.630300000000     0.372326   
H3       H      0.788110500000     0.102497000000     0.626989500000    -0.104212   
C10      C      0.955200000000     0.079550000000     0.536750000000     1.33817    
C8       C      0.934900000000     0.141050000000     0.594400000000     0.402457   
H8       H      0.895578000000     0.143419500000     0.585959500000    -0.110953   
C2       C      0.729150000000     0.137350000000     0.656900000000    -0.391995   
C9       C      0.968900000000     0.114200000000     0.574300000000    -0.426169   
C7       C      0.971850000000     0.164400000000     0.630600000000    -0.421375   
C4       C      0.704700000000     0.079400000000     0.609450000000    -0.39916    
Al2      Al     0.750000000000     0.000000000000     0.500000000000     7.10517    
Al1      Al     0.632410000000     0.466775000000     0.532495000000     7.3394     
Al3      Al     0.500000000000     0.000000000000     0.500000000000     7.90261    
O4       O      0.688335000000     0.424445000000     0.559270000000    -1.74748    
O2       O      0.674970000000     0.484760000000     0.988220000000    -3.17962    
H2       H      0.655805500000     0.486216000000     0.956005000000     0.817101   
O7       O      0.593780000000     0.444465000000     0.579395000000    -1.78294    
O1       O      0.576445000000     0.007590000000     0.509370000000    -3.39261    
H1       H      0.588669000000     0.035581000000     0.501478500000     0.876508   
O5       O      0.834260000000     0.261305000000     0.672225000000    -1.72899    
O9       O      0.595570000000     0.326955000000     0.736360000000    -1.71656    
O3       O      0.770225000000     0.450610000000     0.543950000000    -1.69522    
O6       O      0.758945000000     0.288390000000     0.697550000000    -1.69573    
O10      O      0.504455000000     0.305485000000     0.719015000000    -1.88865    
O8       O      0.504605000000     0.469360000000     0.559785000000    -1.87255    
N4       N      0.977050000000     0.371400000000     0.652700000000    -0.0706574  
H4       H      0.948158500000     0.357657500000     0.659237000000     0.0932825  
N1       N      0.827200000000     0.380600000000     0.600000000000    -0.0763383  
H1A      H      0.850063500000     0.396912500000     0.587701000000     0.0724413  
N2       N      0.842950000000     0.345100000000     0.628450000000    -0.0299845  
N3       N      0.974250000000     0.402400000000     0.618700000000    -0.0269866  
C1       C      0.740950000000     0.423550000000     0.562850000000     1.29199    
C6       C      0.543100000000     0.445700000000     0.583700000000     1.38344    
C5       C      0.796400000000     0.290050000000     0.672400000000     1.27179    
C3       C      0.749300000000     0.355650000000     0.619700000000     0.37246    
H3       H      0.711889500000     0.352497000000     0.623010500000    -0.104172   
C10      C      0.544800000000     0.329550000000     0.713250000000     1.34355    
C8       C      0.565100000000     0.391050000000     0.655600000000     0.405971   
H8       H      0.604422000000     0.393419500000     0.664040500000    -0.112352   
C2       C      0.770850000000     0.387350000000     0.593100000000    -0.391872   
C9       C      0.531100000000     0.364200000000     0.675700000000    -0.430851   
C7       C      0.528150000000     0.414400000000     0.619400000000    -0.425371   
C4       C      0.795300000000     0.329400000000     0.640550000000    -0.39899    
Al1      Al     0.632410000000     0.283225000000     0.782495000000     7.33934    
O4       O      0.688335000000     0.325555000000     0.809270000000    -1.7473     
O2       O      0.674970000000     0.265240000000     0.738220000000    -3.20261    
H2       H      0.655805500000     0.263784000000     0.706005000000     0.82143    
O7       O      0.593780000000     0.305535000000     0.829395000000    -1.78259    
O1       O      0.576445000000     0.242410000000     0.759370000000    -3.39354    
H1       H      0.588669000000     0.214419000000     0.751478500000     0.876916   
O5       O      0.834260000000     0.488695000000     0.922225000000    -1.73072    
O9       O      0.595570000000     0.423045000000     0.986360000000    -1.70435    
O3       O      0.770225000000     0.299390000000     0.793950000000    -1.69507    
O6       O      0.758945000000     0.461610000000     0.947550000000    -1.68552    
O10      O      0.504455000000     0.444515000000     0.969015000000    -1.87518    
O8       O      0.504605000000     0.280640000000     0.809785000000    -1.87225    
N4       N      0.977050000000     0.378600000000     0.902700000000    -0.0712136  
H4       H      0.948158500000     0.392342500000     0.909237000000     0.0939249  
N1       N      0.827200000000     0.369400000000     0.850000000000    -0.0763302  
H1A      H      0.850063500000     0.353087500000     0.837701000000     0.0726507  
N2       N      0.842950000000     0.404900000000     0.878450000000    -0.0298151  
N3       N      0.974250000000     0.347600000000     0.868700000000    -0.0268177  
C1       C      0.740950000000     0.326450000000     0.812850000000     1.29198    
C6       C      0.543100000000     0.304300000000     0.833700000000     1.38328    
C5       C      0.796400000000     0.459950000000     0.922400000000     1.26999    
C3       C      0.749300000000     0.394350000000     0.869700000000     0.371953   
H3       H      0.711889500000     0.397503000000     0.873010500000    -0.10361    
C10      C      0.544800000000     0.420450000000     0.963250000000     1.33672    
C8       C      0.565100000000     0.358950000000     0.905600000000     0.404252   
H8       H      0.604422000000     0.356580500000     0.914040500000    -0.110859   
C2       C      0.770850000000     0.362650000000     0.843100000000    -0.39131    
C9       C      0.531100000000     0.385800000000     0.925700000000    -0.427366   
C7       C      0.528150000000     0.335600000000     0.869400000000    -0.424284   
C4       C      0.795300000000     0.420600000000     0.890550000000    -0.397729   
Al1      Al     0.867590000000     0.033225000000     0.967505000000     7.34       
O4       O      0.811665000000     0.075555000000     0.940730000000    -1.74423    
O2       O      0.825030000000     0.015240000000     0.511780000000    -3.19588    
H2       H      0.844194500000     0.013784000000     0.543995000000     0.819413   
O7       O      0.906220000000     0.055535000000     0.920605000000    -1.77967    
O1       O      0.923555000000     0.492410000000     0.990630000000    -3.37842    
H1       H      0.911331000000     0.464419000000     0.998521500000     0.876383   
O5       O      0.665740000000     0.238695000000     0.827775000000    -1.72909    
O9       O      0.904430000000     0.173045000000     0.763640000000    -1.71514    
O3       O      0.729775000000     0.049390000000     0.956050000000    -1.68177    
O6       O      0.741055000000     0.211610000000     0.802450000000    -1.69565    
O10      O      0.995545000000     0.194515000000     0.780985000000    -1.88289    
O8       O      0.995395000000     0.030640000000     0.940215000000    -1.85218    
N4       N      0.522950000000     0.128600000000     0.847300000000    -0.0722652  
H4       H      0.551841500000     0.142342500000     0.840763000000     0.0932018  
N1       N      0.672800000000     0.119400000000     0.900000000000    -0.0767615  
H1A      H      0.649936500000     0.103087500000     0.912299000000     0.0731749  
N2       N      0.657050000000     0.154900000000     0.871550000000    -0.0298845  
N3       N      0.525750000000     0.097600000000     0.881300000000    -0.0285492  
C1       C      0.759050000000     0.076450000000     0.937150000000     1.28753    
C6       C      0.956900000000     0.054300000000     0.916300000000     1.37593    
C5       C      0.703600000000     0.209950000000     0.827600000000     1.27186    
C3       C      0.750700000000     0.144350000000     0.880300000000     0.371557   
H3       H      0.788110500000     0.147503000000     0.876989500000    -0.103326   
C10      C      0.955200000000     0.170450000000     0.786750000000     1.34078    
C8       C      0.934900000000     0.108950000000     0.844400000000     0.402164   
H8       H      0.895578000000     0.106580500000     0.835959500000    -0.11089    
C2       C      0.729150000000     0.112650000000     0.906900000000    -0.389606   
C9       C      0.968900000000     0.135800000000     0.824300000000    -0.426517   
C7       C      0.971850000000     0.085600000000     0.880600000000    -0.419529   
C4       C      0.704700000000     0.170600000000     0.859450000000    -0.398395   
Al2      Al     0.750000000000     0.750000000000     0.250000000000     7.12387    
Al1      Al     0.867590000000     0.716775000000     0.217505000000     7.33688    
Al3      Al     0.500000000000     0.750000000000     0.250000000000     7.92348    
O4       O      0.811665000000     0.674445000000     0.190730000000    -1.74707    
O2       O      0.825030000000     0.734760000000     0.261780000000    -3.20208    
H2       H      0.844194500000     0.736216000000     0.293995000000     0.821518   
O7       O      0.906220000000     0.694465000000     0.170605000000    -1.78167    
O1       O      0.923555000000     0.757590000000     0.240630000000    -3.38822    
H1       H      0.911331000000     0.785581000000     0.248521500000     0.87638    
O5       O      0.665740000000     0.511305000000     0.077775000000    -1.72133    
O9       O      0.904430000000     0.576955000000     0.013640000000    -1.72069    
O3       O      0.729775000000     0.700610000000     0.206050000000    -1.69528    
O6       O      0.741055000000     0.538390000000     0.052450000000    -1.68785    
O10      O      0.995545000000     0.555485000000     0.030985000000    -1.87587    
O8       O      0.995395000000     0.719360000000     0.190215000000    -1.86715    
N4       N      0.522950000000     0.621400000000     0.097300000000    -0.0724123  
H4       H      0.551841500000     0.607657500000     0.090763000000     0.0927679  
N1       N      0.672800000000     0.630600000000     0.150000000000    -0.0764465  
H1A      H      0.649936500000     0.646912500000     0.162299000000     0.0720853  
N2       N      0.657050000000     0.595100000000     0.121550000000    -0.0305363  
N3       N      0.525750000000     0.652400000000     0.131300000000    -0.0289019  
C1       C      0.759050000000     0.673550000000     0.187150000000     1.29159    
C6       C      0.956900000000     0.695700000000     0.166300000000     1.38071    
C5       C      0.703600000000     0.540050000000     0.077600000000     1.26583    
C3       C      0.750700000000     0.605650000000     0.130300000000     0.371144   
H3       H      0.788110500000     0.602497000000     0.126989500000    -0.103829   
C10      C      0.955200000000     0.579550000000     0.036750000000     1.33865    
C8       C      0.934900000000     0.641050000000     0.094400000000     0.402893   
H8       H      0.895578000000     0.643419500000     0.085959500000    -0.111715   
C2       C      0.729150000000     0.637350000000     0.156900000000    -0.391708   
C9       C      0.968900000000     0.614200000000     0.074300000000    -0.427108   
C7       C      0.971850000000     0.664400000000     0.130600000000    -0.421844   
C4       C      0.704700000000     0.579400000000     0.109450000000    -0.39751    
Al2      Al     0.750000000000     0.500000000000     0.000000000000     7.07741    
Al1      Al     0.632410000000     0.966775000000     0.032495000000     7.30649    
Al3      Al     0.500000000000     0.500000000000     0.000000000000     7.87198    
O4       O      0.688335000000     0.924445000000     0.059270000000    -1.74118    
O2       O      0.674970000000     0.984760000000     0.488220000000    -3.199      
H2       H      0.655805500000     0.986216000000     0.456005000000     0.821476   
O7       O      0.593780000000     0.944465000000     0.079395000000    -1.7751     
O1       O      0.576445000000     0.507590000000     0.009370000000    -3.37691    
H1       H      0.588669000000     0.535581000000     0.001478500000     0.87121    
O5       O      0.834260000000     0.761305000000     0.172225000000    -1.72923    
O9       O      0.595570000000     0.826955000000     0.236360000000    -1.71637    
O3       O      0.770225000000     0.950610000000     0.043950000000    -1.68338    
O6       O      0.758945000000     0.788390000000     0.197550000000    -1.69566    
O10      O      0.504455000000     0.805485000000     0.219015000000    -1.88862    
O8       O      0.504605000000     0.969360000000     0.059785000000    -1.85896    
N4       N      0.977050000000     0.871400000000     0.152700000000    -0.0707606  
H4       H      0.948158500000     0.857657500000     0.159237000000     0.093263   
N1       N      0.827200000000     0.880600000000     0.100000000000    -0.0767829  
H1A      H      0.850063500000     0.896912500000     0.087701000000     0.0721652  
N2       N      0.842950000000     0.845100000000     0.128450000000    -0.030234   
N3       N      0.974250000000     0.902400000000     0.118700000000    -0.0275998  
C1       C      0.740950000000     0.923550000000     0.062850000000     1.2851     
C6       C      0.543100000000     0.945700000000     0.083700000000     1.37593    
C5       C      0.796400000000     0.790050000000     0.172400000000     1.27153    
C3       C      0.749300000000     0.855650000000     0.119700000000     0.37112    
H3       H      0.711889500000     0.852497000000     0.123010500000    -0.104002   
C10      C      0.544800000000     0.829550000000     0.213250000000     1.34332    
C8       C      0.565100000000     0.891050000000     0.155600000000     0.404491   
H8       H      0.604422000000     0.893419500000     0.164040500000    -0.111609   
C2       C      0.770850000000     0.887350000000     0.093100000000    -0.390164   
C9       C      0.531100000000     0.864200000000     0.175700000000    -0.430306   
C7       C      0.528150000000     0.914400000000     0.119400000000    -0.42316    
C4       C      0.795300000000     0.829400000000     0.140550000000    -0.398814   
Al1      Al     0.632410000000     0.783225000000     0.282495000000     7.33927    
O4       O      0.688335000000     0.825555000000     0.309270000000    -1.74731    
O2       O      0.674970000000     0.765240000000     0.238220000000    -3.20247    
H2       H      0.655805500000     0.763784000000     0.206005000000     0.821221   
O7       O      0.593780000000     0.805535000000     0.329395000000    -1.78284    
O1       O      0.576445000000     0.742410000000     0.259370000000    -3.39359    
H1       H      0.588669000000     0.714419000000     0.251478500000     0.876966   
O5       O      0.834260000000     0.988695000000     0.422225000000    -1.72388    
O9       O      0.595570000000     0.923045000000     0.486360000000    -1.71713    
O3       O      0.770225000000     0.799390000000     0.293950000000    -1.6951     
O6       O      0.758945000000     0.961610000000     0.447550000000    -1.69085    
O10      O      0.504455000000     0.944515000000     0.469015000000    -1.88411    
O8       O      0.504605000000     0.780640000000     0.309785000000    -1.87249    
N4       N      0.977050000000     0.878600000000     0.402700000000    -0.0707412  
H4       H      0.948158500000     0.892342500000     0.409237000000     0.0935044  
N1       N      0.827200000000     0.869400000000     0.350000000000    -0.0763558  
H1A      H      0.850063500000     0.853087500000     0.337701000000     0.0725803  
N2       N      0.842950000000     0.904900000000     0.378450000000    -0.0299246  
N3       N      0.974250000000     0.847600000000     0.368700000000    -0.0268884  
C1       C      0.740950000000     0.826450000000     0.312850000000     1.2919     
C6       C      0.543100000000     0.804300000000     0.333700000000     1.38343    
C5       C      0.796400000000     0.959950000000     0.422400000000     1.26919    
C3       C      0.749300000000     0.894350000000     0.369700000000     0.371864   
H3       H      0.711889500000     0.897503000000     0.373010500000    -0.103718   
C10      C      0.544800000000     0.920450000000     0.463250000000     1.34259    
C8       C      0.565100000000     0.858950000000     0.405600000000     0.405808   
H8       H      0.604422000000     0.856580500000     0.414040500000    -0.112198   
C2       C      0.770850000000     0.862650000000     0.343100000000    -0.391456   
C9       C      0.531100000000     0.885800000000     0.425700000000    -0.430285   
C7       C      0.528150000000     0.835600000000     0.369400000000    -0.425199   
C4       C      0.795300000000     0.920600000000     0.390550000000    -0.397745   
Al1      Al     0.867590000000     0.533225000000     0.467505000000     7.33699    
O4       O      0.811665000000     0.575555000000     0.440730000000    -1.74705    
O2       O      0.825030000000     0.515240000000     0.011780000000    -3.20073    
H2       H      0.844194500000     0.513784000000     0.043995000000     0.820666   
O7       O      0.906220000000     0.555535000000     0.420605000000    -1.78147    
O1       O      0.923555000000     0.992410000000     0.490630000000    -3.37844    
H1       H      0.911331000000     0.964419000000     0.498521500000     0.874444   
O5       O      0.665740000000     0.738695000000     0.327775000000    -1.72946    
O9       O      0.904430000000     0.673045000000     0.263640000000    -1.71507    
O3       O      0.729775000000     0.549390000000     0.456050000000    -1.69525    
O6       O      0.741055000000     0.711610000000     0.302450000000    -1.69571    
O10      O      0.995545000000     0.694515000000     0.280985000000    -1.88296    
O8       O      0.995395000000     0.530640000000     0.440215000000    -1.86696    
N4       N      0.522950000000     0.628600000000     0.347300000000    -0.0722657  
H4       H      0.551841500000     0.642342500000     0.340763000000     0.0930424  
N1       N      0.672800000000     0.619400000000     0.400000000000    -0.07633    
H1A      H      0.649936500000     0.603087500000     0.412299000000     0.0722007  
N2       N      0.657050000000     0.654900000000     0.371550000000    -0.0301838  
N3       N      0.525750000000     0.597600000000     0.381300000000    -0.0287451  
C1       C      0.759050000000     0.576450000000     0.437150000000     1.29185    
C6       C      0.956900000000     0.554300000000     0.416300000000     1.38079    
C5       C      0.703600000000     0.709950000000     0.327600000000     1.27188    
C3       C      0.750700000000     0.644350000000     0.380300000000     0.372477   
H3       H      0.788110500000     0.647503000000     0.376989500000    -0.104115   
C10      C      0.955200000000     0.670450000000     0.286750000000     1.34087    
C8       C      0.934900000000     0.608950000000     0.344400000000     0.403048   
H8       H      0.895578000000     0.606580500000     0.335959500000    -0.111139   
C2       C      0.729150000000     0.612650000000     0.406900000000    -0.391903   
C9       C      0.968900000000     0.635800000000     0.324300000000    -0.426903   
C7       C      0.971850000000     0.585600000000     0.380600000000    -0.421475   
C4       C      0.704700000000     0.670600000000     0.359450000000    -0.399077   
Al2      Al     0.750000000000     0.750000000000     0.750000000000     7.12406    
Al1      Al     0.867590000000     0.716775000000     0.717505000000     7.33698    
Al3      Al     0.500000000000     0.750000000000     0.750000000000     7.92342    
O4       O      0.811665000000     0.674445000000     0.690730000000    -1.74708    
O2       O      0.825030000000     0.734760000000     0.761780000000    -3.20221    
H2       H      0.844194500000     0.736216000000     0.793995000000     0.821738   
O7       O      0.906220000000     0.694465000000     0.670605000000    -1.78152    
O1       O      0.923555000000     0.757590000000     0.740630000000    -3.3882     
H1       H      0.911331000000     0.785581000000     0.748521500000     0.876368   
O5       O      0.665740000000     0.511305000000     0.577775000000    -1.7295     
O9       O      0.904430000000     0.576955000000     0.513640000000    -1.71515    
O3       O      0.729775000000     0.700610000000     0.706050000000    -1.69529    
O6       O      0.741055000000     0.538390000000     0.552450000000    -1.69577    
O10      O      0.995545000000     0.555485000000     0.530985000000    -1.88301    
O8       O      0.995395000000     0.719360000000     0.690215000000    -1.867      
N4       N      0.522950000000     0.621400000000     0.597300000000    -0.0722697  
H4       H      0.551841500000     0.607657500000     0.590763000000     0.0930058  
N1       N      0.672800000000     0.630600000000     0.650000000000    -0.0763334  
H1A      H      0.649936500000     0.646912500000     0.662299000000     0.0721612  
N2       N      0.657050000000     0.595100000000     0.621550000000    -0.0302061  
N3       N      0.525750000000     0.652400000000     0.631300000000    -0.0287786  
C1       C      0.759050000000     0.673550000000     0.687150000000     1.29183    
C6       C      0.956900000000     0.695700000000     0.666300000000     1.38077    
C5       C      0.703600000000     0.540050000000     0.577600000000     1.27189    
C3       C      0.750700000000     0.605650000000     0.630300000000     0.372475   
H3       H      0.788110500000     0.602497000000     0.626989500000    -0.104152   
C10      C      0.955200000000     0.579550000000     0.536750000000     1.34087    
C8       C      0.934900000000     0.641050000000     0.594400000000     0.403049   
H8       H      0.895578000000     0.643419500000     0.585959500000    -0.111197   
C2       C      0.729150000000     0.637350000000     0.656900000000    -0.391963   
C9       C      0.968900000000     0.614200000000     0.574300000000    -0.426973   
C7       C      0.971850000000     0.664400000000     0.630600000000    -0.421541   
C4       C      0.704700000000     0.579400000000     0.609450000000    -0.399127   
Al2      Al     0.750000000000     0.500000000000     0.500000000000     7.12407    
Al1      Al     0.632410000000     0.966775000000     0.532495000000     7.34747    
Al3      Al     0.500000000000     0.500000000000     0.500000000000     7.92352    
O4       O      0.688335000000     0.924445000000     0.559270000000    -1.74806    
O2       O      0.674970000000     0.984760000000     0.988220000000    -3.17603    
H2       H      0.655805500000     0.986216000000     0.956005000000     0.817125   
O7       O      0.593780000000     0.944465000000     0.579395000000    -1.78308    
O1       O      0.576445000000     0.507590000000     0.509370000000    -3.3936     
H1       H      0.588669000000     0.535581000000     0.501478500000     0.876978   
O5       O      0.834260000000     0.761305000000     0.672225000000    -1.72901    
O9       O      0.595570000000     0.826955000000     0.736360000000    -1.71644    
O3       O      0.770225000000     0.950610000000     0.543950000000    -1.69095    
O6       O      0.758945000000     0.788390000000     0.697550000000    -1.69568    
O10      O      0.504455000000     0.805485000000     0.719015000000    -1.88861    
O8       O      0.504605000000     0.969360000000     0.559785000000    -1.86772    
N4       N      0.977050000000     0.871400000000     0.652700000000    -0.0706503  
H4       H      0.948158500000     0.857657500000     0.659237000000     0.0933829  
N1       N      0.827200000000     0.880600000000     0.600000000000    -0.0764556  
H1A      H      0.850063500000     0.896912500000     0.587701000000     0.0727579  
N2       N      0.842950000000     0.845100000000     0.628450000000    -0.0299311  
N3       N      0.974250000000     0.902400000000     0.618700000000    -0.026878   
C1       C      0.740950000000     0.923550000000     0.562850000000     1.29117    
C6       C      0.543100000000     0.945700000000     0.583700000000     1.3825     
C5       C      0.796400000000     0.790050000000     0.672400000000     1.27175    
C3       C      0.749300000000     0.855650000000     0.619700000000     0.372295   
H3       H      0.711889500000     0.852497000000     0.623010500000    -0.104047   
C10      C      0.544800000000     0.829550000000     0.713250000000     1.34352    
C8       C      0.565100000000     0.891050000000     0.655600000000     0.405782   
H8       H      0.604422000000     0.893419500000     0.664040500000    -0.112041   
C2       C      0.770850000000     0.887350000000     0.593100000000    -0.391308   
C9       C      0.531100000000     0.864200000000     0.675700000000    -0.430624   
C7       C      0.528150000000     0.914400000000     0.619400000000    -0.424708   
C4       C      0.795300000000     0.829400000000     0.640550000000    -0.398885   
Al1      Al     0.632410000000     0.783225000000     0.782495000000     7.33927    
O4       O      0.688335000000     0.825555000000     0.809270000000    -1.74718    
O2       O      0.674970000000     0.765240000000     0.738220000000    -3.20258    
H2       H      0.655805500000     0.763784000000     0.706005000000     0.821406   
O7       O      0.593780000000     0.805535000000     0.829395000000    -1.78254    
O1       O      0.576445000000     0.742410000000     0.759370000000    -3.39354    
H1       H      0.588669000000     0.714419000000     0.751478500000     0.876944   
O5       O      0.834260000000     0.988695000000     0.922225000000    -1.72563    
O9       O      0.595570000000     0.923045000000     0.986360000000    -1.70495    
O3       O      0.770225000000     0.799390000000     0.793950000000    -1.69502    
O6       O      0.758945000000     0.961610000000     0.947550000000    -1.68069    
O10      O      0.504455000000     0.944515000000     0.969015000000    -1.87067    
O8       O      0.504605000000     0.780640000000     0.809785000000    -1.87224    
N4       N      0.977050000000     0.878600000000     0.902700000000    -0.0713045  
H4       H      0.948158500000     0.892342500000     0.909237000000     0.0941156  
N1       N      0.827200000000     0.869400000000     0.850000000000    -0.0763512  
H1A      H      0.850063500000     0.853087500000     0.837701000000     0.0727425  
N2       N      0.842950000000     0.904900000000     0.878450000000    -0.029783   
N3       N      0.974250000000     0.847600000000     0.868700000000    -0.0267544  
C1       C      0.740950000000     0.826450000000     0.812850000000     1.29189    
C6       C      0.543100000000     0.804300000000     0.833700000000     1.38326    
C5       C      0.796400000000     0.959950000000     0.922400000000     1.2674     
C3       C      0.749300000000     0.894350000000     0.869700000000     0.371354   
H3       H      0.711889500000     0.897503000000     0.873010500000    -0.103196   
C10      C      0.544800000000     0.920450000000     0.963250000000     1.33574    
C8       C      0.565100000000     0.858950000000     0.905600000000     0.404086   
H8       H      0.604422000000     0.856580500000     0.914040500000    -0.110742   
C2       C      0.770850000000     0.862650000000     0.843100000000    -0.390965   
C9       C      0.531100000000     0.885800000000     0.925700000000    -0.426843   
C7       C      0.528150000000     0.835600000000     0.869400000000    -0.42417    
C4       C      0.795300000000     0.920600000000     0.890550000000    -0.396534   
Al1      Al     0.867590000000     0.533225000000     0.967505000000     7.3567     
O4       O      0.811665000000     0.575555000000     0.940730000000    -1.74744    
O2       O      0.825030000000     0.515240000000     0.511780000000    -3.20217    
H2       H      0.844194500000     0.513784000000     0.543995000000     0.821513   
O7       O      0.906220000000     0.555535000000     0.920605000000    -1.7826     
O1       O      0.923555000000     0.992410000000     0.990630000000    -3.36865    
H1       H      0.911331000000     0.964419000000     0.998521500000     0.874512   
O5       O      0.665740000000     0.738695000000     0.827775000000    -1.72912    
O9       O      0.904430000000     0.673045000000     0.763640000000    -1.71509    
O3       O      0.729775000000     0.549390000000     0.956050000000    -1.68479    
O6       O      0.741055000000     0.711610000000     0.802450000000    -1.69564    
O10      O      0.995545000000     0.694515000000     0.780985000000    -1.88289    
O8       O      0.995395000000     0.530640000000     0.940215000000    -1.85556    
N4       N      0.522950000000     0.628600000000     0.847300000000    -0.0722276  
H4       H      0.551841500000     0.642342500000     0.840763000000     0.0932565  
N1       N      0.672800000000     0.619400000000     0.900000000000    -0.0766263  
H1A      H      0.649936500000     0.603087500000     0.912299000000     0.0732917  
N2       N      0.657050000000     0.654900000000     0.871550000000    -0.0298429  
N3       N      0.525750000000     0.597600000000     0.881300000000    -0.0283224  
C1       C      0.759050000000     0.576450000000     0.937150000000     1.28994    
C6       C      0.956900000000     0.554300000000     0.916300000000     1.37856    
C5       C      0.703600000000     0.709950000000     0.827600000000     1.2719     
C3       C      0.750700000000     0.644350000000     0.880300000000     0.372042   
H3       H      0.788110500000     0.647503000000     0.876989500000    -0.103471   
C10      C      0.955200000000     0.670450000000     0.786750000000     1.34084    
C8       C      0.934900000000     0.608950000000     0.844400000000     0.402661   
H8       H      0.895578000000     0.606580500000     0.835959500000    -0.110886   
C2       C      0.729150000000     0.612650000000     0.906900000000    -0.390194   
C9       C      0.968900000000     0.635800000000     0.824300000000    -0.426579   
C7       C      0.971850000000     0.585600000000     0.880600000000    -0.420083   
C4       C      0.704700000000     0.670600000000     0.859450000000    -0.398529   


