data_MOF-808

_audit_creation_method RASPA-1.0
_audit_creation_date 2025-7-10
_audit_author_name ''

_citation_id                 1
_citation_year               10.1021/ja500330a

_cell_length_a    35.0764
_cell_length_b    35.0764
_cell_length_c    35.0764
_cell_angle_alpha 90
_cell_angle_beta  90
_cell_angle_gamma 90
_cell_volume      43156.4

_symmetry_cell_setting          cubic
_symmetry_space_group_name_Hall 'P 1'
_symmetry_space_group_name_H-M  'P 1'
_symmetry_Int_Tables_number     1

_symmetry_equiv_pos_as_xyz 'x,y,z'

loop_
_atom_site_label
_atom_site_type_symbol
_atom_site_fract_x
_atom_site_fract_y
_atom_site_fract_z
_atom_site_charge
Zr1      Zr     0.797040000000     0.226610000000     0.452960000000     4.1375     
O2       O      0.778130000000     0.278130000000     0.471870000000     1.396      
O1       O      0.798660000000     0.253400000000     0.395860000000    -0.840331   
C1       C      0.781290000000     0.281290000000     0.381430000000     0.705474   
C3       C      0.779380000000     0.328070000000     0.328070000000     0.303846   
H3       H      0.757200000000     0.339100000000     0.339100000000    -0.0568463  
C2       C      0.795640000000     0.295640000000     0.344340000000    -0.399502   
O3       O      0.765480000000     0.184410000000     0.484520000000     6.84485    
O4       O      0.780800000000     0.179100000000     0.413000000000    -0.0815355  
C4       C      0.750000000000     0.159390000000     0.409390000000    -0.366773   
O5       O      0.838200000000     0.338200000000     0.411800000000    -0.0617861  
O0AA     O      0.789300000000     0.289300000000     0.460700000000    -1.69416    
O2AA     O      0.875000000000     0.354400000000     0.375000000000    -0.0136376  
O7       O      0.759950000000     0.197940000000     0.490050000000    -7.91737    
O6       O      0.794900000000     0.181900000000     0.409000000000    -0.74111    
C5       C      0.777300000000     0.179400000000     0.378100000000     0.100846   
Zr1      Zr     0.773390000000     0.047040000000     0.702960000000     4.13747    
O2       O      0.721870000000     0.028130000000     0.721870000000     1.39624    
O1       O      0.746600000000     0.048660000000     0.645860000000    -0.840284   
C1       C      0.718710000000     0.031290000000     0.631430000000     0.705438   
C3       C      0.671930000000     0.029380000000     0.578070000000     0.303819   
H3       H      0.660900000000     0.007200000000     0.589100000000    -0.0567955  
C2       C      0.704360000000     0.045640000000     0.594340000000    -0.399457   
O3       O      0.815590000000     0.015480000000     0.734520000000     6.84473    
O4       O      0.820900000000     0.030800000000     0.663000000000    -0.0818523  
C4       C      0.840610000000     0.000000000000     0.659390000000    -0.366735   
O5       O      0.661800000000     0.088200000000     0.661800000000    -0.0617848  
O0AA     O      0.710700000000     0.039300000000     0.710700000000    -1.69425    
O2AA     O      0.645600000000     0.125000000000     0.625000000000    -0.0136404  
O7       O      0.802060000000     0.009950000000     0.740050000000    -7.91713    
O6       O      0.818100000000     0.044900000000     0.659000000000    -0.740793   
C5       C      0.820600000000     0.027300000000     0.628100000000     0.100897   
Zr1      Zr     0.952960000000     0.023390000000     0.952960000000     4.13775    
O2       O      0.971870000000     0.971870000000     0.971870000000     1.39471    
O1       O      0.951340000000     0.996600000000     0.895860000000    -0.840524   
C1       C      0.968710000000     0.968710000000     0.881430000000     0.705478   
C3       C      0.970620000000     0.921930000000     0.828070000000     0.303877   
H3       H      0.992800000000     0.910900000000     0.839100000000    -0.0569146  
C2       C      0.954360000000     0.954360000000     0.844340000000    -0.399609   
O3       O      0.984520000000     0.065590000000     0.984520000000     6.84363    
O4       O      0.969200000000     0.070900000000     0.913000000000    -0.0797442  
C4       C      0.000000000000     0.090610000000     0.909390000000    -0.366735   
O5       O      0.911800000000     0.911800000000     0.911800000000    -0.0617976  
O0AA     O      0.960700000000     0.960700000000     0.960700000000    -1.69344    
O2AA     O      0.875000000000     0.895600000000     0.875000000000    -0.0136345  
O7       O      0.990050000000     0.052060000000     0.990050000000    -7.91654    
O6       O      0.955100000000     0.068100000000     0.909000000000    -0.742843   
C5       C      0.972700000000     0.070600000000     0.878100000000     0.100755   
Zr1      Zr     0.976610000000     0.202960000000     0.202960000000     4.13677    
O2       O      0.028130000000     0.221870000000     0.221870000000     1.39626    
O1       O      0.003400000000     0.201340000000     0.145860000000    -0.84012    
C1       C      0.031290000000     0.218710000000     0.131430000000     0.705431   
C3       C      0.078070000000     0.220620000000     0.078070000000     0.303807   
H3       H      0.089100000000     0.242800000000     0.089100000000    -0.0568282  
C2       C      0.045640000000     0.204360000000     0.094340000000    -0.399428   
O3       O      0.934410000000     0.234520000000     0.234520000000     6.84473    
O4       O      0.929100000000     0.219200000000     0.163000000000    -0.0819183  
C4       C      0.909390000000     0.250000000000     0.159390000000    -0.366752   
O5       O      0.088200000000     0.161800000000     0.161800000000    -0.0617906  
O0AA     O      0.039300000000     0.210700000000     0.210700000000    -1.69427    
O2AA     O      0.104400000000     0.125000000000     0.125000000000    -0.0136424  
O7       O      0.947940000000     0.240050000000     0.240050000000    -7.91716    
O6       O      0.931900000000     0.205100000000     0.159000000000    -0.740702   
C5       C      0.929400000000     0.222700000000     0.128100000000     0.100701   
Zr1      Zr     0.797040000000     0.023390000000     0.797040000000     4.13806    
O2       O      0.778130000000     0.971870000000     0.778130000000     1.39556    
O1       O      0.798660000000     0.996600000000     0.854140000000    -0.840556   
C1       C      0.781290000000     0.968710000000     0.868570000000     0.705493   
C3       C      0.779380000000     0.921930000000     0.921930000000     0.303871   
H3       H      0.757200000000     0.910900000000     0.910900000000    -0.0568496  
C2       C      0.795640000000     0.954360000000     0.905660000000    -0.399588   
O3       O      0.765480000000     0.065590000000     0.765480000000     6.84387    
O4       O      0.780800000000     0.070900000000     0.837000000000    -0.0813141  
C4       C      0.750000000000     0.090610000000     0.840610000000    -0.366769   
O5       O      0.838200000000     0.911800000000     0.838200000000    -0.0617842  
O0AA     O      0.789300000000     0.960700000000     0.789300000000    -1.69391    
O7       O      0.759950000000     0.052060000000     0.759950000000    -7.91643    
O6       O      0.794900000000     0.068100000000     0.841000000000    -0.741313   
C5       C      0.777300000000     0.070600000000     0.871900000000     0.100915   
Zr1      Zr     0.976610000000     0.047040000000     0.047040000000     4.13678    
O2       O      0.028130000000     0.028130000000     0.028130000000     1.39674    
O1       O      0.003400000000     0.048660000000     0.104140000000    -0.840072   
C1       C      0.031290000000     0.031290000000     0.118570000000     0.705408   
C3       C      0.078070000000     0.029380000000     0.171930000000     0.303797   
H3       H      0.089100000000     0.007200000000     0.160900000000    -0.0567857  
C2       C      0.045640000000     0.045640000000     0.155660000000    -0.399398   
O3       O      0.934410000000     0.015480000000     0.015480000000     6.84457    
O4       O      0.929100000000     0.030800000000     0.087000000000    -0.0823193  
C4       C      0.909390000000     0.000000000000     0.090610000000    -0.366735   
O5       O      0.088200000000     0.088200000000     0.088200000000    -0.061781   
O0AA     O      0.039300000000     0.039300000000     0.039300000000    -1.69445    
O7       O      0.947940000000     0.009950000000     0.009950000000    -7.91676    
O6       O      0.931900000000     0.044900000000     0.091000000000    -0.740291   
C5       C      0.929400000000     0.027300000000     0.121900000000     0.100795   
Zr1      Zr     0.952960000000     0.226610000000     0.297040000000     4.13733    
O2       O      0.971870000000     0.278130000000     0.278130000000     1.39558    
O1       O      0.951340000000     0.253400000000     0.354140000000    -0.840345   
C1       C      0.968710000000     0.281290000000     0.368570000000     0.705496   
C3       C      0.970620000000     0.328070000000     0.421930000000     0.30388    
H3       H      0.992800000000     0.339100000000     0.410900000000    -0.0569275  
C2       C      0.954360000000     0.295640000000     0.405660000000    -0.399575   
O3       O      0.984520000000     0.184410000000     0.265480000000     6.84467    
O4       O      0.969200000000     0.179100000000     0.337000000000    -0.0803209  
C4       C      0.000000000000     0.159390000000     0.340610000000    -0.366743   
O5       O      0.911800000000     0.338200000000     0.338200000000    -0.0617931  
O0AA     O      0.960700000000     0.289300000000     0.289300000000    -1.69393    
O7       O      0.990050000000     0.197940000000     0.259950000000    -7.91737    
O6       O      0.955100000000     0.181900000000     0.341000000000    -0.742328   
C5       C      0.972700000000     0.179400000000     0.371900000000     0.100641   
Zr1      Zr     0.773390000000     0.202960000000     0.547040000000     4.13745    
O2       O      0.721870000000     0.221870000000     0.528130000000     1.396      
O1       O      0.746600000000     0.201340000000     0.604140000000    -0.840331   
C1       C      0.718710000000     0.218710000000     0.618570000000     0.705478   
C3       C      0.671930000000     0.220620000000     0.671930000000     0.303857   
H3       H      0.660900000000     0.242800000000     0.660900000000    -0.0568526  
C2       C      0.704360000000     0.204360000000     0.655660000000    -0.399522   
O3       O      0.815590000000     0.234520000000     0.515480000000     6.84471    
O4       O      0.820900000000     0.219200000000     0.587000000000    -0.0816133  
C4       C      0.840610000000     0.250000000000     0.590610000000    -0.36675    
O5       O      0.661800000000     0.161800000000     0.588200000000    -0.0617898  
O0AA     O      0.710700000000     0.210700000000     0.539300000000    -1.69416    
O7       O      0.802060000000     0.240050000000     0.509950000000    -7.91723    
O6       O      0.818100000000     0.205100000000     0.591000000000    -0.741029   
C5       C      0.820600000000     0.222700000000     0.621900000000     0.100793   
Zr1      Zr     0.452960000000     0.797040000000     0.226610000000     4.1375     
O2       O      0.471870000000     0.778130000000     0.278130000000     1.396      
O1       O      0.395860000000     0.798660000000     0.253400000000    -0.840331   
C1       C      0.381430000000     0.781290000000     0.281290000000     0.705474   
C3       C      0.328070000000     0.779380000000     0.328070000000     0.303846   
H3       H      0.339100000000     0.757200000000     0.339100000000    -0.0568463  
C2       C      0.344340000000     0.795640000000     0.295640000000    -0.399502   
O3       O      0.484520000000     0.765480000000     0.184410000000     6.84485    
O4       O      0.413000000000     0.780800000000     0.179100000000    -0.0815355  
C4       C      0.409390000000     0.750000000000     0.159390000000    -0.366773   
O5       O      0.411800000000     0.838200000000     0.338200000000    -0.0617861  
O0AA     O      0.460700000000     0.789300000000     0.289300000000    -1.69416    
O2AA     O      0.375000000000     0.875000000000     0.354400000000    -0.0136376  
O7       O      0.490050000000     0.759950000000     0.197940000000    -7.91737    
O6       O      0.409000000000     0.794900000000     0.181900000000    -0.74111    
C5       C      0.378100000000     0.777300000000     0.179400000000     0.100846   
Zr1      Zr     0.202960000000     0.702960000000     0.476610000000     4.13751    
O2       O      0.221870000000     0.721870000000     0.528130000000     1.396      
O1       O      0.201340000000     0.645860000000     0.503400000000    -0.840339   
C1       C      0.218710000000     0.631430000000     0.531290000000     0.705478   
C3       C      0.220620000000     0.578070000000     0.578070000000     0.303856   
H3       H      0.242800000000     0.589100000000     0.589100000000    -0.0568513  
C2       C      0.204360000000     0.594340000000     0.545640000000    -0.399518   
O3       O      0.234520000000     0.734520000000     0.434410000000     6.84502    
O4       O      0.219200000000     0.663000000000     0.429100000000    -0.0815493  
C4       C      0.250000000000     0.659390000000     0.409390000000    -0.366774   
O5       O      0.161800000000     0.661800000000     0.588200000000    -0.0617898  
O0AA     O      0.210700000000     0.710700000000     0.539300000000    -1.69416    
O2AA     O      0.125000000000     0.625000000000     0.604400000000    -0.0136407  
O7       O      0.240050000000     0.740050000000     0.447940000000    -7.91755    
O6       O      0.205100000000     0.659000000000     0.431900000000    -0.741101   
C5       C      0.222700000000     0.628100000000     0.429400000000     0.100831   
Zr1      Zr     0.297040000000     0.452960000000     0.726610000000     4.13751    
O2       O      0.278130000000     0.471870000000     0.778130000000     1.396      
O1       O      0.354140000000     0.451340000000     0.753400000000    -0.840333   
C1       C      0.368570000000     0.468710000000     0.781290000000     0.705474   
C3       C      0.421930000000     0.470620000000     0.828070000000     0.303838   
H3       H      0.410900000000     0.492800000000     0.839100000000    -0.0568371  
C2       C      0.405660000000     0.454360000000     0.795640000000    -0.399504   
O3       O      0.265480000000     0.484520000000     0.684410000000     6.84501    
O4       O      0.337000000000     0.469200000000     0.679100000000    -0.0815635  
C4       C      0.340610000000     0.500000000000     0.659390000000    -0.366765   
O5       O      0.338200000000     0.411800000000     0.838200000000    -0.0617861  
O0AA     O      0.289300000000     0.460700000000     0.789300000000    -1.69416    
O2AA     O      0.375000000000     0.375000000000     0.854400000000    -0.0136416  
O7       O      0.259950000000     0.490050000000     0.697940000000    -7.91754    
O6       O      0.341000000000     0.455100000000     0.681900000000    -0.741087   
C5       C      0.371900000000     0.472700000000     0.679400000000     0.100828   
Zr1      Zr     0.547040000000     0.547040000000     0.976610000000     4.13675    
O2       O      0.528130000000     0.528130000000     0.028130000000     1.39625    
O1       O      0.548660000000     0.604140000000     0.003400000000    -0.84012    
C1       C      0.531290000000     0.618570000000     0.031290000000     0.705437   
C3       C      0.529380000000     0.671930000000     0.078070000000     0.30383    
H3       H      0.507200000000     0.660900000000     0.089100000000    -0.0568393  
C2       C      0.545640000000     0.655660000000     0.045640000000    -0.399456   
O3       O      0.515480000000     0.515480000000     0.934410000000     6.84455    
O4       O      0.530800000000     0.587000000000     0.929100000000    -0.0819404  
C4       C      0.500000000000     0.590610000000     0.909390000000    -0.366738   
O5       O      0.588200000000     0.588200000000     0.088200000000    -0.0617853  
O0AA     O      0.539300000000     0.539300000000     0.039300000000    -1.69426    
O2AA     O      0.625000000000     0.625000000000     0.104400000000    -0.0136393  
O7       O      0.509950000000     0.509950000000     0.947940000000    -7.91697    
O6       O      0.544900000000     0.591000000000     0.931900000000    -0.740672   
C5       C      0.527300000000     0.621900000000     0.929400000000     0.100661   
Zr1      Zr     0.452960000000     0.452960000000     0.023390000000     4.1381     
O2       O      0.471870000000     0.471870000000     0.971870000000     1.39557    
O1       O      0.395860000000     0.451340000000     0.996600000000    -0.840567   
C1       C      0.381430000000     0.468710000000     0.968710000000     0.705496   
C3       C      0.328070000000     0.470620000000     0.921930000000     0.303867   
H3       H      0.339100000000     0.492800000000     0.910900000000    -0.0568519  
C2       C      0.344340000000     0.454360000000     0.954360000000    -0.399575   
O3       O      0.484520000000     0.484520000000     0.065590000000     6.84415    
O4       O      0.413000000000     0.469200000000     0.070900000000    -0.0813254  
C4       C      0.409390000000     0.500000000000     0.090610000000    -0.366782   
O5       O      0.411800000000     0.411800000000     0.911800000000    -0.0617927  
O0AA     O      0.460700000000     0.460700000000     0.960700000000    -1.69392    
O2AA     O      0.375000000000     0.375000000000     0.895600000000    -0.0136395  
O7       O      0.490050000000     0.490050000000     0.052060000000    -7.91672    
O6       O      0.409000000000     0.455100000000     0.068100000000    -0.741321   
C5       C      0.378100000000     0.472700000000     0.070600000000     0.100965   
Zr1      Zr     0.547040000000     0.702960000000     0.273390000000     4.13748    
O2       O      0.528130000000     0.721870000000     0.221870000000     1.396      
O1       O      0.548660000000     0.645860000000     0.246600000000    -0.840335   
C1       C      0.531290000000     0.631430000000     0.218710000000     0.705478   
C3       C      0.529380000000     0.578070000000     0.171930000000     0.303858   
H3       H      0.507200000000     0.589100000000     0.160900000000    -0.056853   
C2       C      0.545640000000     0.594340000000     0.204360000000    -0.399518   
O3       O      0.515480000000     0.734520000000     0.315590000000     6.84479    
O4       O      0.530800000000     0.663000000000     0.320900000000    -0.0815664  
C4       C      0.500000000000     0.659390000000     0.340610000000    -0.366765   
O5       O      0.588200000000     0.661800000000     0.161800000000    -0.0617898  
O0AA     O      0.539300000000     0.710700000000     0.210700000000    -1.69416    
O2AA     O      0.625000000000     0.625000000000     0.145600000000    -0.0136383  
O7       O      0.509950000000     0.740050000000     0.302060000000    -7.9173     
O6       O      0.544900000000     0.659000000000     0.318100000000    -0.741079   
C5       C      0.527300000000     0.628100000000     0.320600000000     0.100822   
Zr1      Zr     0.297040000000     0.797040000000     0.523390000000     4.13745    
O2       O      0.278130000000     0.778130000000     0.471870000000     1.396      
O1       O      0.354140000000     0.798660000000     0.496600000000    -0.840326   
C1       C      0.368570000000     0.781290000000     0.468710000000     0.705474   
C3       C      0.421930000000     0.779380000000     0.421930000000     0.303846   
H3       H      0.410900000000     0.757200000000     0.410900000000    -0.0568471  
C2       C      0.405660000000     0.795640000000     0.454360000000    -0.399504   
O3       O      0.265480000000     0.765480000000     0.565590000000     6.84465    
O4       O      0.337000000000     0.780800000000     0.570900000000    -0.0815669  
C4       C      0.340610000000     0.750000000000     0.590610000000    -0.366755   
O5       O      0.338200000000     0.838200000000     0.411800000000    -0.0617861  
O0AA     O      0.289300000000     0.789300000000     0.460700000000    -1.69416    
O2AA     O      0.375000000000     0.875000000000     0.395600000000    -0.0136374  
O7       O      0.259950000000     0.759950000000     0.552060000000    -7.91716    
O6       O      0.341000000000     0.794900000000     0.568100000000    -0.741072   
C5       C      0.371900000000     0.777300000000     0.570600000000     0.100821   
Zr1      Zr     0.202960000000     0.547040000000     0.773390000000     4.13745    
O2       O      0.221870000000     0.528130000000     0.721870000000     1.396      
O1       O      0.201340000000     0.604140000000     0.746600000000    -0.840331   
C1       C      0.218710000000     0.618570000000     0.718710000000     0.705478   
C3       C      0.220620000000     0.671930000000     0.671930000000     0.303857   
H3       H      0.242800000000     0.660900000000     0.660900000000    -0.0568526  
C2       C      0.204360000000     0.655660000000     0.704360000000    -0.399522   
O3       O      0.234520000000     0.515480000000     0.815590000000     6.84471    
O4       O      0.219200000000     0.587000000000     0.820900000000    -0.0816133  
C4       C      0.250000000000     0.590610000000     0.840610000000    -0.36675    
O5       O      0.161800000000     0.588200000000     0.661800000000    -0.0617898  
O0AA     O      0.210700000000     0.539300000000     0.710700000000    -1.69416    
O2AA     O      0.125000000000     0.625000000000     0.645600000000    -0.0136404  
O7       O      0.240050000000     0.509950000000     0.802060000000    -7.91723    
O6       O      0.205100000000     0.591000000000     0.818100000000    -0.741029   
C5       C      0.222700000000     0.621900000000     0.820600000000     0.100793   
Zr1      Zr     0.226610000000     0.452960000000     0.797040000000     4.1375     
O1       O      0.253400000000     0.395860000000     0.798660000000    -0.840331   
C1       C      0.281290000000     0.381430000000     0.781290000000     0.705474   
C3       C      0.328070000000     0.328070000000     0.779380000000     0.303846   
H3       H      0.339100000000     0.339100000000     0.757200000000    -0.0568463  
C2       C      0.295640000000     0.344340000000     0.795640000000    -0.399502   
O3       O      0.184410000000     0.484520000000     0.765480000000     6.84485    
O4       O      0.179100000000     0.413000000000     0.780800000000    -0.0815355  
C4       C      0.159390000000     0.409390000000     0.750000000000    -0.366773   
O2AA     O      0.354400000000     0.375000000000     0.875000000000    -0.0136376  
O7       O      0.197940000000     0.490050000000     0.759950000000    -7.91737    
O6       O      0.181900000000     0.409000000000     0.794900000000    -0.74111    
C5       C      0.179400000000     0.378100000000     0.777300000000     0.100846   
Zr1      Zr     0.726610000000     0.297040000000     0.452960000000     4.13751    
O1       O      0.753400000000     0.354140000000     0.451340000000    -0.840333   
C1       C      0.781290000000     0.368570000000     0.468710000000     0.705474   
C3       C      0.828070000000     0.421930000000     0.470620000000     0.303838   
H3       H      0.839100000000     0.410900000000     0.492800000000    -0.0568371  
C2       C      0.795640000000     0.405660000000     0.454360000000    -0.399504   
O3       O      0.684410000000     0.265480000000     0.484520000000     6.84501    
O4       O      0.679100000000     0.337000000000     0.469200000000    -0.0815635  
C4       C      0.659390000000     0.340610000000     0.500000000000    -0.366765   
O2AA     O      0.854400000000     0.375000000000     0.375000000000    -0.0136416  
O7       O      0.697940000000     0.259950000000     0.490050000000    -7.91754    
O6       O      0.681900000000     0.341000000000     0.455100000000    -0.741087   
C5       C      0.679400000000     0.371900000000     0.472700000000     0.100828   
Zr1      Zr     0.702960000000     0.976610000000     0.702960000000     4.13678    
O1       O      0.645860000000     0.003400000000     0.701340000000    -0.840124   
C1       C      0.631430000000     0.031290000000     0.718710000000     0.705438   
C3       C      0.578070000000     0.078070000000     0.720620000000     0.303831   
H3       H      0.589100000000     0.089100000000     0.742800000000    -0.0568428  
C2       C      0.594340000000     0.045640000000     0.704360000000    -0.399457   
O3       O      0.734520000000     0.934410000000     0.734520000000     6.84473    
O4       O      0.663000000000     0.929100000000     0.719200000000    -0.0819469  
C4       C      0.659390000000     0.909390000000     0.750000000000    -0.366749   
O2AA     O      0.625000000000     0.104400000000     0.625000000000    -0.0136393  
O7       O      0.740050000000     0.947940000000     0.740050000000    -7.91716    
O6       O      0.659000000000     0.931900000000     0.705100000000    -0.740672   
C5       C      0.628100000000     0.929400000000     0.722700000000     0.100661   
Zr1      Zr     0.023390000000     0.952960000000     0.952960000000     4.13775    
O1       O      0.996600000000     0.895860000000     0.951340000000    -0.840524   
C1       C      0.968710000000     0.881430000000     0.968710000000     0.705478   
C3       C      0.921930000000     0.828070000000     0.970620000000     0.303877   
H3       H      0.910900000000     0.839100000000     0.992800000000    -0.0569146  
C2       C      0.954360000000     0.844340000000     0.954360000000    -0.399609   
O3       O      0.065590000000     0.984520000000     0.984520000000     6.84363    
O4       O      0.070900000000     0.913000000000     0.969200000000    -0.0797442  
C4       C      0.090610000000     0.909390000000     0.000000000000    -0.366735   
O2AA     O      0.895600000000     0.875000000000     0.875000000000    -0.0136345  
O7       O      0.052060000000     0.990050000000     0.990050000000    -7.91654    
O6       O      0.068100000000     0.909000000000     0.955100000000    -0.742843   
C5       C      0.070600000000     0.878100000000     0.972700000000     0.100755   
Zr1      Zr     0.547040000000     0.273390000000     0.702960000000     4.13748    
O2       O      0.528130000000     0.221870000000     0.721870000000     1.396      
O1       O      0.604140000000     0.246600000000     0.701340000000    -0.840331   
C1       C      0.618570000000     0.218710000000     0.718710000000     0.705478   
C3       C      0.671930000000     0.171930000000     0.720620000000     0.303859   
H3       H      0.660900000000     0.160900000000     0.742800000000    -0.0568577  
C2       C      0.655660000000     0.204360000000     0.704360000000    -0.399522   
O3       O      0.515480000000     0.315590000000     0.734520000000     6.84479    
O4       O      0.587000000000     0.320900000000     0.719200000000    -0.0815767  
C4       C      0.590610000000     0.340610000000     0.750000000000    -0.366755   
O5       O      0.588200000000     0.161800000000     0.661800000000    -0.0617898  
O0AA     O      0.539300000000     0.210700000000     0.710700000000    -1.69416    
O2AA     O      0.625000000000     0.145600000000     0.625000000000    -0.0136383  
O7       O      0.509950000000     0.302060000000     0.740050000000    -7.9173     
O6       O      0.591000000000     0.318100000000     0.705100000000    -0.741064   
C5       C      0.621900000000     0.320600000000     0.722700000000     0.100815   
Zr1      Zr     0.023390000000     0.797040000000     0.797040000000     4.13806    
O2       O      0.971870000000     0.778130000000     0.778130000000     1.39556    
O1       O      0.996600000000     0.854140000000     0.798660000000    -0.840556   
C1       C      0.968710000000     0.868570000000     0.781290000000     0.705493   
C3       C      0.921930000000     0.921930000000     0.779380000000     0.303871   
H3       H      0.910900000000     0.910900000000     0.757200000000    -0.0568496  
C2       C      0.954360000000     0.905660000000     0.795640000000    -0.399588   
O3       O      0.065590000000     0.765480000000     0.765480000000     6.84387    
O4       O      0.070900000000     0.837000000000     0.780800000000    -0.0813141  
C4       C      0.090610000000     0.840610000000     0.750000000000    -0.366769   
O5       O      0.911800000000     0.838200000000     0.838200000000    -0.0617842  
O0AA     O      0.960700000000     0.789300000000     0.789300000000    -1.69391    
O7       O      0.052060000000     0.759950000000     0.759950000000    -7.91643    
O6       O      0.068100000000     0.841000000000     0.794900000000    -0.741313   
C5       C      0.070600000000     0.871900000000     0.777300000000     0.100915   
Zr1      Zr     0.702960000000     0.773390000000     0.047040000000     4.13747    
O2       O      0.721870000000     0.721870000000     0.028130000000     1.39624    
O1       O      0.645860000000     0.746600000000     0.048660000000    -0.840284   
C1       C      0.631430000000     0.718710000000     0.031290000000     0.705438   
C3       C      0.578070000000     0.671930000000     0.029380000000     0.303819   
H3       H      0.589100000000     0.660900000000     0.007200000000    -0.0567955  
C2       C      0.594340000000     0.704360000000     0.045640000000    -0.399457   
O3       O      0.734520000000     0.815590000000     0.015480000000     6.84473    
O4       O      0.663000000000     0.820900000000     0.030800000000    -0.0818523  
C4       C      0.659390000000     0.840610000000     0.000000000000    -0.366735   
O5       O      0.661800000000     0.661800000000     0.088200000000    -0.0617848  
O0AA     O      0.710700000000     0.710700000000     0.039300000000    -1.69425    
O2AA     O      0.625000000000     0.645600000000     0.125000000000    -0.0136404  
O7       O      0.740050000000     0.802060000000     0.009950000000    -7.91713    
O6       O      0.659000000000     0.818100000000     0.044900000000    -0.740793   
C5       C      0.628100000000     0.820600000000     0.027300000000     0.100897   
Zr1      Zr     0.047040000000     0.476610000000     0.547040000000     4.13751    
O2       O      0.028130000000     0.528130000000     0.528130000000     1.39625    
O1       O      0.104140000000     0.503400000000     0.548660000000    -0.840337   
C1       C      0.118570000000     0.531290000000     0.531290000000     0.70549    
C3       C      0.171930000000     0.578070000000     0.529380000000     0.303858   
H3       H      0.160900000000     0.589100000000     0.507200000000    -0.056853   
C2       C      0.155660000000     0.545640000000     0.545640000000    -0.39952    
O3       O      0.015480000000     0.434410000000     0.515480000000     6.84486    
O4       O      0.087000000000     0.429100000000     0.530800000000    -0.0817098  
C4       C      0.090610000000     0.409390000000     0.500000000000    -0.366782   
O5       O      0.088200000000     0.588200000000     0.588200000000    -0.0617853  
O0AA     O      0.039300000000     0.539300000000     0.539300000000    -1.69426    
O2AA     O      0.125000000000     0.604400000000     0.625000000000    -0.0136407  
O7       O      0.009950000000     0.447940000000     0.509950000000    -7.91726    
O6       O      0.091000000000     0.431900000000     0.544900000000    -0.740935   
C5       C      0.121900000000     0.429400000000     0.527300000000     0.10085    
Zr1      Zr     0.202960000000     0.773390000000     0.547040000000     4.13745    
O1       O      0.201340000000     0.746600000000     0.604140000000    -0.840331   
C1       C      0.218710000000     0.718710000000     0.618570000000     0.705478   
C2       C      0.204360000000     0.704360000000     0.655660000000    -0.399522   
O3       O      0.234520000000     0.815590000000     0.515480000000     6.84471    
O4       O      0.219200000000     0.820900000000     0.587000000000    -0.0816133  
C4       C      0.250000000000     0.840610000000     0.590610000000    -0.36675    
O2AA     O      0.125000000000     0.645600000000     0.625000000000    -0.0136404  
O7       O      0.240050000000     0.802060000000     0.509950000000    -7.91723    
O6       O      0.205100000000     0.818100000000     0.591000000000    -0.741029   
C5       C      0.222700000000     0.820600000000     0.621900000000     0.100793   
Zr1      Zr     0.226610000000     0.952960000000     0.297040000000     4.13733    
O2       O      0.278130000000     0.971870000000     0.278130000000     1.39558    
O1       O      0.253400000000     0.951340000000     0.354140000000    -0.840345   
C1       C      0.281290000000     0.968710000000     0.368570000000     0.705496   
C3       C      0.328070000000     0.970620000000     0.421930000000     0.30388    
H3       H      0.339100000000     0.992800000000     0.410900000000    -0.0569275  
C2       C      0.295640000000     0.954360000000     0.405660000000    -0.399575   
O3       O      0.184410000000     0.984520000000     0.265480000000     6.84467    
O4       O      0.179100000000     0.969200000000     0.337000000000    -0.0803209  
C4       C      0.159390000000     0.000000000000     0.340610000000    -0.366743   
O5       O      0.338200000000     0.911800000000     0.338200000000    -0.0617931  
O0AA     O      0.289300000000     0.960700000000     0.289300000000    -1.69393    
O2AA     O      0.354400000000     0.875000000000     0.375000000000    -0.0136376  
O7       O      0.197940000000     0.990050000000     0.259950000000    -7.91737    
O6       O      0.181900000000     0.955100000000     0.341000000000    -0.742328   
C5       C      0.179400000000     0.972700000000     0.371900000000     0.100641   
Zr1      Zr     0.047040000000     0.976610000000     0.047040000000     4.13678    
O1       O      0.048660000000     0.003400000000     0.104140000000    -0.840072   
C3       C      0.029380000000     0.078070000000     0.171930000000     0.303797   
H3       H      0.007200000000     0.089100000000     0.160900000000    -0.0567857  
O3       O      0.015480000000     0.934410000000     0.015480000000     6.84457    
O4       O      0.030800000000     0.929100000000     0.087000000000    -0.0823193  
C4       C      0.000000000000     0.909390000000     0.090610000000    -0.366735   
O2AA     O      0.125000000000     0.104400000000     0.125000000000    -0.0136424  
O7       O      0.009950000000     0.947940000000     0.009950000000    -7.91676    
O6       O      0.044900000000     0.931900000000     0.091000000000    -0.740291   
C5       C      0.027300000000     0.929400000000     0.121900000000     0.100795   
O1       O      0.996600000000     0.798660000000     0.854140000000    -0.840556   
C1       C      0.968710000000     0.781290000000     0.868570000000     0.705493   
C3       C      0.921930000000     0.779380000000     0.921930000000     0.303871   
H3       H      0.910900000000     0.757200000000     0.910900000000    -0.0568496  
C2       C      0.954360000000     0.795640000000     0.905660000000    -0.399588   
O4       O      0.070900000000     0.780800000000     0.837000000000    -0.0813141  
C4       C      0.090610000000     0.750000000000     0.840610000000    -0.366769   
O6       O      0.068100000000     0.794900000000     0.841000000000    -0.741313   
C5       C      0.070600000000     0.777300000000     0.871900000000     0.100915   
Zr1      Zr     0.202960000000     0.976610000000     0.202960000000     4.13677    
O2       O      0.221870000000     0.028130000000     0.221870000000     1.39626    
O1       O      0.201340000000     0.003400000000     0.145860000000    -0.84012    
C1       C      0.218710000000     0.031290000000     0.131430000000     0.705431   
C3       C      0.220620000000     0.078070000000     0.078070000000     0.303807   
H3       H      0.242800000000     0.089100000000     0.089100000000    -0.0568282  
C2       C      0.204360000000     0.045640000000     0.094340000000    -0.399428   
O3       O      0.234520000000     0.934410000000     0.234520000000     6.84473    
O4       O      0.219200000000     0.929100000000     0.163000000000    -0.0819183  
C4       C      0.250000000000     0.909390000000     0.159390000000    -0.366752   
O5       O      0.161800000000     0.088200000000     0.161800000000    -0.0617906  
O0AA     O      0.210700000000     0.039300000000     0.210700000000    -1.69427    
O7       O      0.240050000000     0.947940000000     0.240050000000    -7.91716    
O6       O      0.205100000000     0.931900000000     0.159000000000    -0.740702   
C5       C      0.222700000000     0.929400000000     0.128100000000     0.100701   
O1       O      0.996600000000     0.951340000000     0.895860000000    -0.840524   
C3       C      0.921930000000     0.970620000000     0.828070000000     0.303877   
H3       H      0.910900000000     0.992800000000     0.839100000000    -0.0569146  
O4       O      0.070900000000     0.969200000000     0.913000000000    -0.0797442  
C4       C      0.090610000000     0.000000000000     0.909390000000    -0.366735   
O6       O      0.068100000000     0.955100000000     0.909000000000    -0.742843   
C5       C      0.070600000000     0.972700000000     0.878100000000     0.100755   
Zr1      Zr     0.047040000000     0.773390000000     0.702960000000     4.13747    
O2       O      0.028130000000     0.721870000000     0.721870000000     1.39624    
O1       O      0.048660000000     0.746600000000     0.645860000000    -0.840284   
C1       C      0.031290000000     0.718710000000     0.631430000000     0.705438   
C3       C      0.029380000000     0.671930000000     0.578070000000     0.303819   
H3       H      0.007200000000     0.660900000000     0.589100000000    -0.0567955  
C2       C      0.045640000000     0.704360000000     0.594340000000    -0.399457   
O3       O      0.015480000000     0.815590000000     0.734520000000     6.84473    
O4       O      0.030800000000     0.820900000000     0.663000000000    -0.0818523  
C4       C      0.000000000000     0.840610000000     0.659390000000    -0.366735   
O5       O      0.088200000000     0.661800000000     0.661800000000    -0.0617848  
O0AA     O      0.039300000000     0.710700000000     0.710700000000    -1.69425    
O7       O      0.009950000000     0.802060000000     0.740050000000    -7.91713    
O6       O      0.044900000000     0.818100000000     0.659000000000    -0.740793   
C5       C      0.027300000000     0.820600000000     0.628100000000     0.100897   
Zr1      Zr     0.226610000000     0.797040000000     0.452960000000     4.1375     
O1       O      0.253400000000     0.798660000000     0.395860000000    -0.840331   
C1       C      0.281290000000     0.781290000000     0.381430000000     0.705474   
C2       C      0.295640000000     0.795640000000     0.344340000000    -0.399502   
O3       O      0.184410000000     0.765480000000     0.484520000000     6.84485    
O4       O      0.179100000000     0.780800000000     0.413000000000    -0.0815355  
C4       C      0.159390000000     0.750000000000     0.409390000000    -0.366773   
O7       O      0.197940000000     0.759950000000     0.490050000000    -7.91737    
O6       O      0.181900000000     0.794900000000     0.409000000000    -0.74111    
C5       C      0.179400000000     0.777300000000     0.378100000000     0.100846   
Zr1      Zr     0.547040000000     0.202960000000     0.773390000000     4.13745    
O1       O      0.604140000000     0.201340000000     0.746600000000    -0.840331   
O3       O      0.515480000000     0.234520000000     0.815590000000     6.84471    
O4       O      0.587000000000     0.219200000000     0.820900000000    -0.0816133  
C4       C      0.590610000000     0.250000000000     0.840610000000    -0.36675    
O2AA     O      0.625000000000     0.125000000000     0.645600000000    -0.0136404  
O7       O      0.509950000000     0.240050000000     0.802060000000    -7.91723    
O6       O      0.591000000000     0.205100000000     0.818100000000    -0.741029   
C5       C      0.621900000000     0.222700000000     0.820600000000     0.100793   
Zr1      Zr     0.797040000000     0.297040000000     0.523390000000     4.13745    
O1       O      0.798660000000     0.354140000000     0.496600000000    -0.840326   
C3       C      0.779380000000     0.421930000000     0.421930000000     0.303846   
H3       H      0.757200000000     0.410900000000     0.410900000000    -0.0568471  
O3       O      0.765480000000     0.265480000000     0.565590000000     6.84465    
O4       O      0.780800000000     0.337000000000     0.570900000000    -0.0815669  
C4       C      0.750000000000     0.340610000000     0.590610000000    -0.366755   
O2AA     O      0.875000000000     0.375000000000     0.395600000000    -0.0136374  
O7       O      0.759950000000     0.259950000000     0.552060000000    -7.91716    
O6       O      0.794900000000     0.341000000000     0.568100000000    -0.741072   
C5       C      0.777300000000     0.371900000000     0.570600000000     0.100821   
Zr1      Zr     0.702960000000     0.547040000000     0.273390000000     4.13748    
O2       O      0.721870000000     0.528130000000     0.221870000000     1.396      
O1       O      0.645860000000     0.548660000000     0.246600000000    -0.840335   
C1       C      0.631430000000     0.531290000000     0.218710000000     0.705478   
C3       C      0.578070000000     0.529380000000     0.171930000000     0.303858   
H3       H      0.589100000000     0.507200000000     0.160900000000    -0.056853   
C2       C      0.594340000000     0.545640000000     0.204360000000    -0.399518   
O3       O      0.734520000000     0.515480000000     0.315590000000     6.84479    
O4       O      0.663000000000     0.530800000000     0.320900000000    -0.0815664  
C4       C      0.659390000000     0.500000000000     0.340610000000    -0.366765   
O5       O      0.661800000000     0.588200000000     0.161800000000    -0.0617898  
O0AA     O      0.710700000000     0.539300000000     0.210700000000    -1.69416    
O7       O      0.740050000000     0.509950000000     0.302060000000    -7.9173     
O6       O      0.659000000000     0.544900000000     0.318100000000    -0.741079   
C5       C      0.628100000000     0.527300000000     0.320600000000     0.100822   
O1       O      0.451340000000     0.395860000000     0.996600000000    -0.840567   
C1       C      0.468710000000     0.381430000000     0.968710000000     0.705496   
C3       C      0.470620000000     0.328070000000     0.921930000000     0.303867   
H3       H      0.492800000000     0.339100000000     0.910900000000    -0.0568519  
C2       C      0.454360000000     0.344340000000     0.954360000000    -0.399575   
O4       O      0.469200000000     0.413000000000     0.070900000000    -0.0813254  
C4       C      0.500000000000     0.409390000000     0.090610000000    -0.366782   
O6       O      0.455100000000     0.409000000000     0.068100000000    -0.741321   
C5       C      0.472700000000     0.378100000000     0.070600000000     0.100965   
O1       O      0.604140000000     0.548660000000     0.003400000000    -0.84012    
C1       C      0.618570000000     0.531290000000     0.031290000000     0.705437   
C3       C      0.671930000000     0.529380000000     0.078070000000     0.30383    
H3       H      0.660900000000     0.507200000000     0.089100000000    -0.0568393  
C2       C      0.655660000000     0.545640000000     0.045640000000    -0.399456   
O4       O      0.587000000000     0.530800000000     0.929100000000    -0.0819404  
C4       C      0.590610000000     0.500000000000     0.909390000000    -0.366738   
O6       O      0.591000000000     0.544900000000     0.931900000000    -0.740672   
C5       C      0.621900000000     0.527300000000     0.929400000000     0.100661   
Zr1      Zr     0.452960000000     0.297040000000     0.726610000000     4.13751    
O2       O      0.471870000000     0.278130000000     0.778130000000     1.396      
O1       O      0.451340000000     0.354140000000     0.753400000000    -0.840333   
C1       C      0.468710000000     0.368570000000     0.781290000000     0.705474   
C3       C      0.470620000000     0.421930000000     0.828070000000     0.303838   
H3       H      0.492800000000     0.410900000000     0.839100000000    -0.0568371  
C2       C      0.454360000000     0.405660000000     0.795640000000    -0.399504   
O3       O      0.484520000000     0.265480000000     0.684410000000     6.84501    
O4       O      0.469200000000     0.337000000000     0.679100000000    -0.0815635  
C4       C      0.500000000000     0.340610000000     0.659390000000    -0.366765   
O5       O      0.411800000000     0.338200000000     0.838200000000    -0.0617861  
O0AA     O      0.460700000000     0.289300000000     0.789300000000    -1.69416    
O7       O      0.490050000000     0.259950000000     0.697940000000    -7.91754    
O6       O      0.455100000000     0.341000000000     0.681900000000    -0.741087   
C5       C      0.472700000000     0.371900000000     0.679400000000     0.100828   
Zr1      Zr     0.702960000000     0.202960000000     0.476610000000     4.13751    
O1       O      0.645860000000     0.201340000000     0.503400000000    -0.840339   
C1       C      0.631430000000     0.218710000000     0.531290000000     0.705478   
C3       C      0.578070000000     0.220620000000     0.578070000000     0.303856   
H3       H      0.589100000000     0.242800000000     0.589100000000    -0.0568513  
C2       C      0.594340000000     0.204360000000     0.545640000000    -0.399518   
O3       O      0.734520000000     0.234520000000     0.434410000000     6.84502    
O4       O      0.663000000000     0.219200000000     0.429100000000    -0.0815493  
C4       C      0.659390000000     0.250000000000     0.409390000000    -0.366774   
O2AA     O      0.625000000000     0.125000000000     0.604400000000    -0.0136407  
O7       O      0.740050000000     0.240050000000     0.447940000000    -7.91755    
O6       O      0.659000000000     0.205100000000     0.431900000000    -0.741101   
C5       C      0.628100000000     0.222700000000     0.429400000000     0.100831   
Zr1      Zr     0.797040000000     0.452960000000     0.226610000000     4.1375     
O2       O      0.778130000000     0.471870000000     0.278130000000     1.396      
O1       O      0.798660000000     0.395860000000     0.253400000000    -0.840331   
C1       C      0.781290000000     0.381430000000     0.281290000000     0.705474   
C2       C      0.795640000000     0.344340000000     0.295640000000    -0.399502   
O3       O      0.765480000000     0.484520000000     0.184410000000     6.84485    
O4       O      0.780800000000     0.413000000000     0.179100000000    -0.0815355  
C4       C      0.750000000000     0.409390000000     0.159390000000    -0.366773   
O5       O      0.838200000000     0.411800000000     0.338200000000    -0.0617861  
O0AA     O      0.789300000000     0.460700000000     0.289300000000    -1.69416    
O2AA     O      0.875000000000     0.375000000000     0.354400000000    -0.0136376  
O7       O      0.759950000000     0.490050000000     0.197940000000    -7.91737    
O6       O      0.794900000000     0.409000000000     0.181900000000    -0.74111    
C5       C      0.777300000000     0.378100000000     0.179400000000     0.100846   
Zr1      Zr     0.773390000000     0.547040000000     0.202960000000     4.13745    
O1       O      0.746600000000     0.604140000000     0.201340000000    -0.840331   
C1       C      0.718710000000     0.618570000000     0.218710000000     0.705478   
C3       C      0.671930000000     0.671930000000     0.220620000000     0.303857   
H3       H      0.660900000000     0.660900000000     0.242800000000    -0.0568526  
C2       C      0.704360000000     0.655660000000     0.204360000000    -0.399522   
O3       O      0.815590000000     0.515480000000     0.234520000000     6.84471    
O4       O      0.820900000000     0.587000000000     0.219200000000    -0.0816133  
C4       C      0.840610000000     0.590610000000     0.250000000000    -0.36675    
O2AA     O      0.645600000000     0.625000000000     0.125000000000    -0.0136404  
O7       O      0.802060000000     0.509950000000     0.240050000000    -7.91723    
O6       O      0.818100000000     0.591000000000     0.205100000000    -0.741029   
C5       C      0.820600000000     0.621900000000     0.222700000000     0.100793   
Zr1      Zr     0.273390000000     0.702960000000     0.547040000000     4.13748    
O1       O      0.246600000000     0.645860000000     0.548660000000    -0.840335   
O3       O      0.315590000000     0.734520000000     0.515480000000     6.84479    
O4       O      0.320900000000     0.663000000000     0.530800000000    -0.0815664  
C4       C      0.340610000000     0.659390000000     0.500000000000    -0.366765   
O2AA     O      0.145600000000     0.625000000000     0.625000000000    -0.0136383  
O7       O      0.302060000000     0.740050000000     0.509950000000    -7.9173     
O6       O      0.318100000000     0.659000000000     0.544900000000    -0.741079   
C5       C      0.320600000000     0.628100000000     0.527300000000     0.100822   
Zr1      Zr     0.297040000000     0.023390000000     0.297040000000     4.13808    
O1       O      0.354140000000     0.996600000000     0.298660000000    -0.840565   
C1       C      0.368570000000     0.968710000000     0.281290000000     0.705496   
C3       C      0.421930000000     0.921930000000     0.279380000000     0.303867   
H3       H      0.410900000000     0.910900000000     0.257200000000    -0.05685    
C2       C      0.405660000000     0.954360000000     0.295640000000    -0.399575   
O3       O      0.265480000000     0.065590000000     0.265480000000     6.84403    
O4       O      0.337000000000     0.070900000000     0.280800000000    -0.0813282  
C4       C      0.340610000000     0.090610000000     0.250000000000    -0.366777   
O2AA     O      0.375000000000     0.895600000000     0.375000000000    -0.0136395  
O7       O      0.259950000000     0.052060000000     0.259950000000    -7.9166     
O6       O      0.341000000000     0.068100000000     0.294900000000    -0.741315   
C5       C      0.371900000000     0.070600000000     0.277300000000     0.100966   
O1       O      0.003400000000     0.104140000000     0.048660000000    -0.840072   
C1       C      0.031290000000     0.118570000000     0.031290000000     0.705408   
C3       C      0.078070000000     0.171930000000     0.029380000000     0.303797   
H3       H      0.089100000000     0.160900000000     0.007200000000    -0.0567857  
C2       C      0.045640000000     0.155660000000     0.045640000000    -0.399398   
O4       O      0.929100000000     0.087000000000     0.030800000000    -0.0823193  
C4       C      0.909390000000     0.090610000000     0.000000000000    -0.366735   
O6       O      0.931900000000     0.091000000000     0.044900000000    -0.740291   
C5       C      0.929400000000     0.121900000000     0.027300000000     0.100795   
Zr1      Zr     0.452960000000     0.726610000000     0.297040000000     4.13751    
O1       O      0.395860000000     0.753400000000     0.298660000000    -0.840336   
C3       C      0.328070000000     0.828070000000     0.279380000000     0.303838   
H3       H      0.339100000000     0.839100000000     0.257200000000    -0.0568345  
O3       O      0.484520000000     0.684410000000     0.265480000000     6.84501    
O4       O      0.413000000000     0.679100000000     0.280800000000    -0.081562   
C4       C      0.409390000000     0.659390000000     0.250000000000    -0.366774   
O2AA     O      0.375000000000     0.854400000000     0.375000000000    -0.0136416  
O7       O      0.490050000000     0.697940000000     0.259950000000    -7.91754    
O6       O      0.409000000000     0.681900000000     0.294900000000    -0.741092   
C5       C      0.378100000000     0.679400000000     0.277300000000     0.100835   
O1       O      0.003400000000     0.145860000000     0.201340000000    -0.84012    
C1       C      0.031290000000     0.131430000000     0.218710000000     0.705431   
C3       C      0.078070000000     0.078070000000     0.220620000000     0.303807   
H3       H      0.089100000000     0.089100000000     0.242800000000    -0.0568282  
C2       C      0.045640000000     0.094340000000     0.204360000000    -0.399428   
O4       O      0.929100000000     0.163000000000     0.219200000000    -0.0819183  
C4       C      0.909390000000     0.159390000000     0.250000000000    -0.366752   
O6       O      0.931900000000     0.159000000000     0.205100000000    -0.740702   
C5       C      0.929400000000     0.128100000000     0.222700000000     0.100701   
Zr1      Zr     0.297040000000     0.226610000000     0.952960000000     4.13733    
O2       O      0.278130000000     0.278130000000     0.971870000000     1.39558    
O1       O      0.354140000000     0.253400000000     0.951340000000    -0.840345   
C1       C      0.368570000000     0.281290000000     0.968710000000     0.705496   
C3       C      0.421930000000     0.328070000000     0.970620000000     0.30388    
H3       H      0.410900000000     0.339100000000     0.992800000000    -0.0569275  
C2       C      0.405660000000     0.295640000000     0.954360000000    -0.399575   
O3       O      0.265480000000     0.184410000000     0.984520000000     6.84467    
O4       O      0.337000000000     0.179100000000     0.969200000000    -0.0803209  
C4       C      0.340610000000     0.159390000000     0.000000000000    -0.366743   
O5       O      0.338200000000     0.338200000000     0.911800000000    -0.0617931  
O0AA     O      0.289300000000     0.289300000000     0.960700000000    -1.69393    
O2AA     O      0.375000000000     0.354400000000     0.875000000000    -0.0136376  
O7       O      0.259950000000     0.197940000000     0.990050000000    -7.91737    
O6       O      0.341000000000     0.181900000000     0.955100000000    -0.742328   
C5       C      0.371900000000     0.179400000000     0.972700000000     0.100641   
Zr1      Zr     0.952960000000     0.523390000000     0.452960000000     4.13731    
O2       O      0.971870000000     0.471870000000     0.471870000000     1.39557    
O1       O      0.895860000000     0.496600000000     0.451340000000    -0.840282   
C1       C      0.881430000000     0.468710000000     0.468710000000     0.705442   
C2       C      0.844340000000     0.454360000000     0.454360000000    -0.399489   
O3       O      0.984520000000     0.565590000000     0.484520000000     6.84459    
O4       O      0.913000000000     0.570900000000     0.469200000000    -0.0812077  
C4       C      0.909390000000     0.590610000000     0.500000000000    -0.366738   
O5       O      0.911800000000     0.411800000000     0.411800000000    -0.0617927  
O0AA     O      0.960700000000     0.460700000000     0.460700000000    -1.69392    
O2AA     O      0.875000000000     0.395600000000     0.375000000000    -0.0136374  
O7       O      0.990050000000     0.552060000000     0.490050000000    -7.91728    
O6       O      0.909000000000     0.568100000000     0.455100000000    -0.741377   
C5       C      0.878100000000     0.570600000000     0.472700000000     0.100819   
Zr1      Zr     0.797040000000     0.726610000000     0.952960000000     4.13733    
O2       O      0.778130000000     0.778130000000     0.971870000000     1.39556    
O1       O      0.798660000000     0.753400000000     0.895860000000    -0.840279   
C1       C      0.781290000000     0.781290000000     0.881430000000     0.705436   
C3       C      0.779380000000     0.828070000000     0.828070000000     0.303815   
H3       H      0.757200000000     0.839100000000     0.839100000000    -0.0568196  
C2       C      0.795640000000     0.795640000000     0.844340000000    -0.399465   
O3       O      0.765480000000     0.684410000000     0.984520000000     6.84468    
O4       O      0.780800000000     0.679100000000     0.913000000000    -0.0811925  
C4       C      0.750000000000     0.659390000000     0.909390000000    -0.366749   
O5       O      0.838200000000     0.838200000000     0.911800000000    -0.0617842  
O0AA     O      0.789300000000     0.789300000000     0.960700000000    -1.69391    
O2AA     O      0.875000000000     0.854400000000     0.875000000000    -0.0136366  
O7       O      0.759950000000     0.697940000000     0.990050000000    -7.91737    
O6       O      0.794900000000     0.681900000000     0.909000000000    -0.741396   
C5       C      0.777300000000     0.679400000000     0.878100000000     0.100823   
O1       O      0.746600000000     0.548660000000     0.145860000000    -0.840329   
C1       C      0.718710000000     0.531290000000     0.131430000000     0.705472   
C2       C      0.704360000000     0.545640000000     0.094340000000    -0.399489   
O4       O      0.820900000000     0.530800000000     0.163000000000    -0.081611   
C4       C      0.840610000000     0.500000000000     0.159390000000    -0.366759   
O6       O      0.818100000000     0.544900000000     0.159000000000    -0.741039   
C5       C      0.820600000000     0.527300000000     0.128100000000     0.100822   
O1       O      0.951340000000     0.496600000000     0.395860000000    -0.840345   
C1       C      0.968710000000     0.468710000000     0.381430000000     0.705496   
C3       C      0.970620000000     0.421930000000     0.328070000000     0.30388    
H3       H      0.992800000000     0.410900000000     0.339100000000    -0.0569275  
C2       C      0.954360000000     0.454360000000     0.344340000000    -0.399575   
O4       O      0.969200000000     0.570900000000     0.413000000000    -0.0803516  
C4       C      0.000000000000     0.590610000000     0.409390000000    -0.366739   
O6       O      0.955100000000     0.568100000000     0.409000000000    -0.742299   
C5       C      0.972700000000     0.570600000000     0.378100000000     0.100622   
Zr1      Zr     0.976610000000     0.702960000000     0.702960000000     4.13678    
O1       O      0.003400000000     0.701340000000     0.645860000000    -0.840124   
C3       C      0.078070000000     0.720620000000     0.578070000000     0.303831   
H3       H      0.089100000000     0.742800000000     0.589100000000    -0.0568428  
O3       O      0.934410000000     0.734520000000     0.734520000000     6.84473    
O4       O      0.929100000000     0.719200000000     0.663000000000    -0.0819469  
C4       C      0.909390000000     0.750000000000     0.659390000000    -0.366749   
O2AA     O      0.104400000000     0.625000000000     0.625000000000    -0.0136393  
O7       O      0.947940000000     0.740050000000     0.740050000000    -7.91716    
O6       O      0.931900000000     0.705100000000     0.659000000000    -0.740672   
C5       C      0.929400000000     0.722700000000     0.628100000000     0.100661   
Zr1      Zr     0.797040000000     0.523390000000     0.297040000000     4.13745    
O1       O      0.798660000000     0.496600000000     0.354140000000    -0.840326   
C1       C      0.781290000000     0.468710000000     0.368570000000     0.705474   
C2       C      0.795640000000     0.454360000000     0.405660000000    -0.399504   
O3       O      0.765480000000     0.565590000000     0.265480000000     6.84465    
O4       O      0.780800000000     0.570900000000     0.337000000000    -0.0815669  
C4       C      0.750000000000     0.590610000000     0.340610000000    -0.366755   
O7       O      0.759950000000     0.552060000000     0.259950000000    -7.91716    
O6       O      0.794900000000     0.568100000000     0.341000000000    -0.741072   
C5       C      0.777300000000     0.570600000000     0.371900000000     0.100821   
Zr1      Zr     0.976610000000     0.547040000000     0.547040000000     4.13675    
O1       O      0.003400000000     0.548660000000     0.604140000000    -0.84012    
C1       C      0.031290000000     0.531290000000     0.618570000000     0.705437   
C3       C      0.078070000000     0.529380000000     0.671930000000     0.30383    
H3       H      0.089100000000     0.507200000000     0.660900000000    -0.0568393  
C2       C      0.045640000000     0.545640000000     0.655660000000    -0.399456   
O3       O      0.934410000000     0.515480000000     0.515480000000     6.84455    
O4       O      0.929100000000     0.530800000000     0.587000000000    -0.0819404  
C4       C      0.909390000000     0.500000000000     0.590610000000    -0.366738   
O7       O      0.947940000000     0.509950000000     0.509950000000    -7.91697    
O6       O      0.931900000000     0.544900000000     0.591000000000    -0.740672   
C5       C      0.929400000000     0.527300000000     0.621900000000     0.100661   
Zr1      Zr     0.952960000000     0.726610000000     0.797040000000     4.13733    
O1       O      0.951340000000     0.753400000000     0.854140000000    -0.840343   
C3       C      0.970620000000     0.828070000000     0.921930000000     0.303877   
H3       H      0.992800000000     0.839100000000     0.910900000000    -0.0569146  
O3       O      0.984520000000     0.684410000000     0.765480000000     6.84468    
O4       O      0.969200000000     0.679100000000     0.837000000000    -0.0803399  
C4       C      0.000000000000     0.659390000000     0.840610000000    -0.366735   
O7       O      0.990050000000     0.697940000000     0.759950000000    -7.91737    
O6       O      0.955100000000     0.681900000000     0.841000000000    -0.742302   
C5       C      0.972700000000     0.679400000000     0.871900000000     0.100582   
Zr1      Zr     0.773390000000     0.702960000000     0.047040000000     4.13747    
O1       O      0.746600000000     0.701340000000     0.104140000000    -0.840334   
C1       C      0.718710000000     0.718710000000     0.118570000000     0.70549    
C3       C      0.671930000000     0.720620000000     0.171930000000     0.303859   
H3       H      0.660900000000     0.742800000000     0.160900000000    -0.0568577  
C2       C      0.704360000000     0.704360000000     0.155660000000    -0.399525   
O3       O      0.815590000000     0.734520000000     0.015480000000     6.84473    
O4       O      0.820900000000     0.719200000000     0.087000000000    -0.0817799  
C4       C      0.840610000000     0.750000000000     0.090610000000    -0.366769   
O7       O      0.802060000000     0.740050000000     0.009950000000    -7.91713    
O6       O      0.818100000000     0.705100000000     0.091000000000    -0.740863   
C5       C      0.820600000000     0.722700000000     0.121900000000     0.100812   
O1       O      0.395860000000     0.298660000000     0.753400000000    -0.840336   
C1       C      0.381430000000     0.281290000000     0.781290000000     0.705474   
C3       C      0.328070000000     0.279380000000     0.828070000000     0.303838   
H3       H      0.339100000000     0.257200000000     0.839100000000    -0.0568345  
C2       C      0.344340000000     0.295640000000     0.795640000000    -0.399502   
O4       O      0.413000000000     0.280800000000     0.679100000000    -0.081562   
C4       C      0.409390000000     0.250000000000     0.659390000000    -0.366774   
O6       O      0.409000000000     0.294900000000     0.681900000000    -0.741092   
C5       C      0.378100000000     0.277300000000     0.679400000000     0.100835   
Zr1      Zr     0.202960000000     0.202960000000     0.976610000000     4.13677    
O2       O      0.221870000000     0.221870000000     0.028130000000     1.39626    
O1       O      0.201340000000     0.145860000000     0.003400000000    -0.84012    
C1       C      0.218710000000     0.131430000000     0.031290000000     0.705431   
C2       C      0.204360000000     0.094340000000     0.045640000000    -0.399428   
O3       O      0.234520000000     0.234520000000     0.934410000000     6.84473    
O4       O      0.219200000000     0.163000000000     0.929100000000    -0.0819183  
C4       C      0.250000000000     0.159390000000     0.909390000000    -0.366752   
O5       O      0.161800000000     0.161800000000     0.088200000000    -0.0617906  
O0AA     O      0.210700000000     0.210700000000     0.039300000000    -1.69427    
O2AA     O      0.125000000000     0.125000000000     0.104400000000    -0.0136424  
O7       O      0.240050000000     0.240050000000     0.947940000000    -7.91716    
O6       O      0.205100000000     0.159000000000     0.931900000000    -0.740702   
C5       C      0.222700000000     0.128100000000     0.929400000000     0.100701   
Zr1      Zr     0.297040000000     0.952960000000     0.226610000000     4.13733    
O1       O      0.354140000000     0.951340000000     0.253400000000    -0.840345   
C3       C      0.421930000000     0.970620000000     0.328070000000     0.30388    
H3       H      0.410900000000     0.992800000000     0.339100000000    -0.0569275  
O3       O      0.265480000000     0.984520000000     0.184410000000     6.84467    
O4       O      0.337000000000     0.969200000000     0.179100000000    -0.0803209  
C4       C      0.340610000000     0.000000000000     0.159390000000    -0.366743   
O7       O      0.259950000000     0.990050000000     0.197940000000    -7.91737    
O6       O      0.341000000000     0.955100000000     0.181900000000    -0.742328   
C5       C      0.371900000000     0.972700000000     0.179400000000     0.100641   
Zr1      Zr     0.547040000000     0.047040000000     0.476610000000     4.13751    
O2       O      0.528130000000     0.028130000000     0.528130000000     1.39625    
O1       O      0.548660000000     0.104140000000     0.503400000000    -0.840337   
C1       C      0.531290000000     0.118570000000     0.531290000000     0.70549    
C3       C      0.529380000000     0.171930000000     0.578070000000     0.303858   
H3       H      0.507200000000     0.160900000000     0.589100000000    -0.056853   
C2       C      0.545640000000     0.155660000000     0.545640000000    -0.39952    
O3       O      0.515480000000     0.015480000000     0.434410000000     6.84486    
O4       O      0.530800000000     0.087000000000     0.429100000000    -0.0817098  
C4       C      0.500000000000     0.090610000000     0.409390000000    -0.366782   
O5       O      0.588200000000     0.088200000000     0.588200000000    -0.0617853  
O0AA     O      0.539300000000     0.039300000000     0.539300000000    -1.69426    
O7       O      0.509950000000     0.009950000000     0.447940000000    -7.91726    
O6       O      0.544900000000     0.091000000000     0.431900000000    -0.740935   
C5       C      0.527300000000     0.121900000000     0.429400000000     0.10085    
Zr1      Zr     0.452960000000     0.952960000000     0.523390000000     4.13731    
O2       O      0.471870000000     0.971870000000     0.471870000000     1.39557    
O1       O      0.395860000000     0.951340000000     0.496600000000    -0.840345   
C1       C      0.381430000000     0.968710000000     0.468710000000     0.705496   
C2       C      0.344340000000     0.954360000000     0.454360000000    -0.399575   
O3       O      0.484520000000     0.984520000000     0.565590000000     6.84459    
O4       O      0.413000000000     0.969200000000     0.570900000000    -0.0803516  
C4       C      0.409390000000     0.000000000000     0.590610000000    -0.366739   
O5       O      0.411800000000     0.911800000000     0.411800000000    -0.0617927  
O0AA     O      0.460700000000     0.960700000000     0.460700000000    -1.69392    
O7       O      0.490050000000     0.990050000000     0.552060000000    -7.91728    
O6       O      0.409000000000     0.955100000000     0.568100000000    -0.742299   
C5       C      0.378100000000     0.972700000000     0.570600000000     0.100622   
O1       O      0.548660000000     0.145860000000     0.746600000000    -0.840329   
C1       C      0.531290000000     0.131430000000     0.718710000000     0.705472   
C3       C      0.529380000000     0.078070000000     0.671930000000     0.30383    
H3       H      0.507200000000     0.089100000000     0.660900000000    -0.0568393  
C2       C      0.545640000000     0.094340000000     0.704360000000    -0.399489   
O4       O      0.530800000000     0.163000000000     0.820900000000    -0.081611   
C4       C      0.500000000000     0.159390000000     0.840610000000    -0.366759   
O6       O      0.544900000000     0.159000000000     0.818100000000    -0.741039   
C5       C      0.527300000000     0.128100000000     0.820600000000     0.100822   
Zr1      Zr     0.297040000000     0.297040000000     0.023390000000     4.13808    
O1       O      0.354140000000     0.298660000000     0.996600000000    -0.840565   
C3       C      0.421930000000     0.279380000000     0.921930000000     0.303867   
H3       H      0.410900000000     0.257200000000     0.910900000000    -0.05685    
O3       O      0.265480000000     0.265480000000     0.065590000000     6.84403    
O4       O      0.337000000000     0.280800000000     0.070900000000    -0.0813282  
C4       C      0.340610000000     0.250000000000     0.090610000000    -0.366777   
O7       O      0.259950000000     0.259950000000     0.052060000000    -7.9166     
O6       O      0.341000000000     0.294900000000     0.068100000000    -0.741315   
C5       C      0.371900000000     0.277300000000     0.070600000000     0.100966   
Zr1      Zr     0.202960000000     0.047040000000     0.273390000000     4.1375     
O1       O      0.201340000000     0.104140000000     0.246600000000    -0.840337   
C1       C      0.218710000000     0.118570000000     0.218710000000     0.705491   
C3       C      0.220620000000     0.171930000000     0.171930000000     0.303863   
H3       H      0.242800000000     0.160900000000     0.160900000000    -0.0568571  
C2       C      0.204360000000     0.155660000000     0.204360000000    -0.399526   
O3       O      0.234520000000     0.015480000000     0.315590000000     6.8448     
O4       O      0.219200000000     0.087000000000     0.320900000000    -0.0817054  
C4       C      0.250000000000     0.090610000000     0.340610000000    -0.366777   
O2AA     O      0.125000000000     0.125000000000     0.145600000000    -0.0136413  
O7       O      0.240050000000     0.009950000000     0.302060000000    -7.91721    
O6       O      0.205100000000     0.091000000000     0.318100000000    -0.740936   
C5       C      0.222700000000     0.121900000000     0.320600000000     0.100852   
O1       O      0.253400000000     0.895860000000     0.298660000000    -0.840285   
C1       C      0.281290000000     0.881430000000     0.281290000000     0.705442   
C2       C      0.295640000000     0.844340000000     0.295640000000    -0.399486   
O4       O      0.179100000000     0.913000000000     0.280800000000    -0.0811778  
C4       C      0.159390000000     0.909390000000     0.250000000000    -0.366752   
O6       O      0.181900000000     0.909000000000     0.294900000000    -0.741409   
C5       C      0.179400000000     0.878100000000     0.277300000000     0.100845   
Zr1      Zr     0.726610000000     0.797040000000     0.952960000000     4.13733    
O1       O      0.753400000000     0.854140000000     0.951340000000    -0.840343   
C1       C      0.781290000000     0.868570000000     0.968710000000     0.705493   
C3       C      0.828070000000     0.921930000000     0.970620000000     0.303877   
H3       H      0.839100000000     0.910900000000     0.992800000000    -0.0569146  
C2       C      0.795640000000     0.905660000000     0.954360000000    -0.399588   
O3       O      0.684410000000     0.765480000000     0.984520000000     6.84468    
O4       O      0.679100000000     0.837000000000     0.969200000000    -0.0803399  
O2AA     O      0.854400000000     0.875000000000     0.875000000000    -0.0136366  
O7       O      0.697940000000     0.759950000000     0.990050000000    -7.91737    
O6       O      0.681900000000     0.841000000000     0.955100000000    -0.742302   
C5       C      0.679400000000     0.871900000000     0.972700000000     0.100582   
Zr1      Zr     0.702960000000     0.476610000000     0.202960000000     4.13751    
O1       O      0.645860000000     0.503400000000     0.201340000000    -0.840339   
C3       C      0.578070000000     0.578070000000     0.220620000000     0.303856   
H3       H      0.589100000000     0.589100000000     0.242800000000    -0.0568513  
O3       O      0.734520000000     0.434410000000     0.234520000000     6.84502    
O4       O      0.663000000000     0.429100000000     0.219200000000    -0.0815493  
C4       C      0.659390000000     0.409390000000     0.250000000000    -0.366774   
O2AA     O      0.625000000000     0.604400000000     0.125000000000    -0.0136407  
O7       O      0.740050000000     0.447940000000     0.240050000000    -7.91755    
O6       O      0.659000000000     0.431900000000     0.205100000000    -0.741101   
C5       C      0.628100000000     0.429400000000     0.222700000000     0.100831   
Zr1      Zr     0.023390000000     0.452960000000     0.452960000000     4.1381     
O1       O      0.996600000000     0.395860000000     0.451340000000    -0.840567   
C1       C      0.968710000000     0.381430000000     0.468710000000     0.705496   
C3       C      0.921930000000     0.328070000000     0.470620000000     0.303867   
H3       H      0.910900000000     0.339100000000     0.492800000000    -0.0568519  
C2       C      0.954360000000     0.344340000000     0.454360000000    -0.399575   
O3       O      0.065590000000     0.484520000000     0.484520000000     6.84415    
O4       O      0.070900000000     0.413000000000     0.469200000000    -0.0813254  
O2AA     O      0.895600000000     0.375000000000     0.375000000000    -0.0136395  
O7       O      0.052060000000     0.490050000000     0.490050000000    -7.91672    
O6       O      0.068100000000     0.409000000000     0.455100000000    -0.741321   
C5       C      0.070600000000     0.378100000000     0.472700000000     0.100965   
Zr1      Zr     0.547040000000     0.773390000000     0.202960000000     4.13745    
O1       O      0.604140000000     0.746600000000     0.201340000000    -0.840331   
C1       C      0.618570000000     0.718710000000     0.218710000000     0.705478   
C2       C      0.655660000000     0.704360000000     0.204360000000    -0.399522   
O3       O      0.515480000000     0.815590000000     0.234520000000     6.84471    
O4       O      0.587000000000     0.820900000000     0.219200000000    -0.0816133  
C4       C      0.590610000000     0.840610000000     0.250000000000    -0.36675    
O7       O      0.509950000000     0.802060000000     0.240050000000    -7.91723    
O6       O      0.591000000000     0.818100000000     0.205100000000    -0.741029   
C5       C      0.621900000000     0.820600000000     0.222700000000     0.100793   
Zr1      Zr     0.023390000000     0.297040000000     0.297040000000     4.13808    
O1       O      0.996600000000     0.354140000000     0.298660000000    -0.840565   
C1       C      0.968710000000     0.368570000000     0.281290000000     0.705496   
C3       C      0.921930000000     0.421930000000     0.279380000000     0.303867   
H3       H      0.910900000000     0.410900000000     0.257200000000    -0.05685    
C2       C      0.954360000000     0.405660000000     0.295640000000    -0.399575   
O3       O      0.065590000000     0.265480000000     0.265480000000     6.84403    
O4       O      0.070900000000     0.337000000000     0.280800000000    -0.0813282  
C4       C      0.090610000000     0.340610000000     0.250000000000    -0.366777   
O7       O      0.052060000000     0.259950000000     0.259950000000    -7.9166     
O6       O      0.068100000000     0.341000000000     0.294900000000    -0.741315   
C5       C      0.070600000000     0.371900000000     0.277300000000     0.100966   
Zr1      Zr     0.702960000000     0.273390000000     0.547040000000     4.13748    
O1       O      0.645860000000     0.246600000000     0.548660000000    -0.840335   
C3       C      0.578070000000     0.171930000000     0.529380000000     0.303858   
H3       H      0.589100000000     0.160900000000     0.507200000000    -0.056853   
O3       O      0.734520000000     0.315590000000     0.515480000000     6.84479    
O4       O      0.663000000000     0.320900000000     0.530800000000    -0.0815664  
O7       O      0.740050000000     0.302060000000     0.509950000000    -7.9173     
O6       O      0.659000000000     0.318100000000     0.544900000000    -0.741079   
C5       C      0.628100000000     0.320600000000     0.527300000000     0.100822   
O1       O      0.104140000000     0.003400000000     0.048660000000    -0.840072   
C1       C      0.118570000000     0.031290000000     0.031290000000     0.705408   
C3       C      0.171930000000     0.078070000000     0.029380000000     0.303797   
H3       H      0.160900000000     0.089100000000     0.007200000000    -0.0567857  
C2       C      0.155660000000     0.045640000000     0.045640000000    -0.399398   
O4       O      0.087000000000     0.929100000000     0.030800000000    -0.0823193  
O6       O      0.091000000000     0.931900000000     0.044900000000    -0.740291   
C5       C      0.121900000000     0.929400000000     0.027300000000     0.100795   
Zr1      Zr     0.202960000000     0.273390000000     0.047040000000     4.1375     
O1       O      0.201340000000     0.246600000000     0.104140000000    -0.840337   
C1       C      0.218710000000     0.218710000000     0.118570000000     0.705491   
C2       C      0.204360000000     0.204360000000     0.155660000000    -0.399526   
O3       O      0.234520000000     0.315590000000     0.015480000000     6.8448     
O4       O      0.219200000000     0.320900000000     0.087000000000    -0.0817054  
C4       C      0.250000000000     0.340610000000     0.090610000000    -0.366777   
O2AA     O      0.125000000000     0.145600000000     0.125000000000    -0.0136413  
O7       O      0.240050000000     0.302060000000     0.009950000000    -7.91721    
O6       O      0.205100000000     0.318100000000     0.091000000000    -0.740936   
C5       C      0.222700000000     0.320600000000     0.121900000000     0.100852   
O1       O      0.253400000000     0.451340000000     0.854140000000    -0.840332   
C1       C      0.281290000000     0.468710000000     0.868570000000     0.705478   
C2       C      0.295640000000     0.454360000000     0.905660000000    -0.399538   
O4       O      0.179100000000     0.469200000000     0.837000000000    -0.0815354  
C4       C      0.159390000000     0.500000000000     0.840610000000    -0.366759   
O6       O      0.181900000000     0.455100000000     0.841000000000    -0.741099   
C5       C      0.179400000000     0.472700000000     0.871900000000     0.1008     
O1       O      0.048660000000     0.503400000000     0.604140000000    -0.840283   
C3       C      0.029380000000     0.578070000000     0.671930000000     0.303819   
H3       H      0.007200000000     0.589100000000     0.660900000000    -0.0567955  
O4       O      0.030800000000     0.429100000000     0.587000000000    -0.0817925  
C4       C      0.000000000000     0.409390000000     0.590610000000    -0.366739   
O6       O      0.044900000000     0.431900000000     0.591000000000    -0.74085    
C5       C      0.027300000000     0.429400000000     0.621900000000     0.100928   
O1       O      0.996600000000     0.298660000000     0.354140000000    -0.840565   
C3       C      0.921930000000     0.279380000000     0.421930000000     0.303867   
H3       H      0.910900000000     0.257200000000     0.410900000000    -0.05685    
O4       O      0.070900000000     0.280800000000     0.337000000000    -0.0813282  
C4       C      0.090610000000     0.250000000000     0.340610000000    -0.366777   
O6       O      0.068100000000     0.294900000000     0.341000000000    -0.741315   
C5       C      0.070600000000     0.277300000000     0.371900000000     0.100966   
Zr1      Zr     0.202960000000     0.476610000000     0.702960000000     4.13751    
O1       O      0.201340000000     0.503400000000     0.645860000000    -0.840339   
C1       C      0.218710000000     0.531290000000     0.631430000000     0.705478   
C2       C      0.204360000000     0.545640000000     0.594340000000    -0.399518   
O3       O      0.234520000000     0.434410000000     0.734520000000     6.84502    
O4       O      0.219200000000     0.429100000000     0.663000000000    -0.0815493  
C4       C      0.250000000000     0.409390000000     0.659390000000    -0.366774   
O7       O      0.240050000000     0.447940000000     0.740050000000    -7.91755    
O6       O      0.205100000000     0.431900000000     0.659000000000    -0.741101   
C5       C      0.222700000000     0.429400000000     0.628100000000     0.100831   
O1       O      0.996600000000     0.451340000000     0.395860000000    -0.840567   
C3       C      0.921930000000     0.470620000000     0.328070000000     0.303867   
H3       H      0.910900000000     0.492800000000     0.339100000000    -0.0568519  
O4       O      0.070900000000     0.469200000000     0.413000000000    -0.0813254  
C4       C      0.090610000000     0.500000000000     0.409390000000    -0.366782   
O6       O      0.068100000000     0.455100000000     0.409000000000    -0.741321   
C5       C      0.070600000000     0.472700000000     0.378100000000     0.100965   
Zr1      Zr     0.047040000000     0.273390000000     0.202960000000     4.1375     
O1       O      0.048660000000     0.246600000000     0.145860000000    -0.840281   
C3       C      0.029380000000     0.171930000000     0.078070000000     0.303797   
H3       H      0.007200000000     0.160900000000     0.089100000000    -0.0567857  
O3       O      0.015480000000     0.315590000000     0.234520000000     6.8448     
O4       O      0.030800000000     0.320900000000     0.163000000000    -0.0817863  
C4       C      0.000000000000     0.340610000000     0.159390000000    -0.366743   
O7       O      0.009950000000     0.302060000000     0.240050000000    -7.91721    
O6       O      0.044900000000     0.318100000000     0.159000000000    -0.740859   
C5       C      0.027300000000     0.320600000000     0.128100000000     0.100959   
Zr1      Zr     0.226610000000     0.297040000000     0.952960000000     4.13733    
O1       O      0.253400000000     0.298660000000     0.895860000000    -0.840285   
C1       C      0.281290000000     0.281290000000     0.881430000000     0.705442   
C2       C      0.295640000000     0.295640000000     0.844340000000    -0.399486   
O3       O      0.184410000000     0.265480000000     0.984520000000     6.84467    
O4       O      0.179100000000     0.280800000000     0.913000000000    -0.0811778  
C4       C      0.159390000000     0.250000000000     0.909390000000    -0.366752   
O7       O      0.197940000000     0.259950000000     0.990050000000    -7.91737    
O6       O      0.181900000000     0.294900000000     0.909000000000    -0.741409   
C5       C      0.179400000000     0.277300000000     0.878100000000     0.100845   
O1       O      0.604140000000     0.701340000000     0.246600000000    -0.840331   
O4       O      0.587000000000     0.719200000000     0.320900000000    -0.0815767  
C4       C      0.590610000000     0.750000000000     0.340610000000    -0.366755   
O6       O      0.591000000000     0.705100000000     0.318100000000    -0.741064   
C5       C      0.621900000000     0.722700000000     0.320600000000     0.100815   
Zr1      Zr     0.797040000000     0.797040000000     0.023390000000     4.13806    
O1       O      0.798660000000     0.854140000000     0.996600000000    -0.840556   
O3       O      0.765480000000     0.765480000000     0.065590000000     6.84387    
O4       O      0.780800000000     0.837000000000     0.070900000000    -0.0813141  
C4       C      0.750000000000     0.840610000000     0.090610000000    -0.366769   
O2AA     O      0.875000000000     0.875000000000     0.895600000000    -0.0136345  
O7       O      0.759950000000     0.759950000000     0.052060000000    -7.91643    
O6       O      0.794900000000     0.841000000000     0.068100000000    -0.741313   
C5       C      0.777300000000     0.871900000000     0.070600000000     0.100915   
Zr1      Zr     0.702960000000     0.047040000000     0.773390000000     4.13747    
O1       O      0.645860000000     0.048660000000     0.746600000000    -0.840284   
C3       C      0.578070000000     0.029380000000     0.671930000000     0.303819   
H3       H      0.589100000000     0.007200000000     0.660900000000    -0.0567955  
O3       O      0.734520000000     0.015480000000     0.815590000000     6.84473    
O4       O      0.663000000000     0.030800000000     0.820900000000    -0.0818523  
C4       C      0.659390000000     0.000000000000     0.840610000000    -0.366735   
O7       O      0.740050000000     0.009950000000     0.802060000000    -7.91713    
O6       O      0.659000000000     0.044900000000     0.818100000000    -0.740793   
C5       C      0.628100000000     0.027300000000     0.820600000000     0.100897   
O1       O      0.451340000000     0.895860000000     0.496600000000    -0.840282   
C1       C      0.468710000000     0.881430000000     0.468710000000     0.705442   
C3       C      0.470620000000     0.828070000000     0.421930000000     0.303838   
H3       H      0.492800000000     0.839100000000     0.410900000000    -0.0568371  
C2       C      0.454360000000     0.844340000000     0.454360000000    -0.399489   
O4       O      0.469200000000     0.913000000000     0.570900000000    -0.0812077  
C4       C      0.500000000000     0.909390000000     0.590610000000    -0.366738   
O6       O      0.455100000000     0.909000000000     0.568100000000    -0.741377   
C5       C      0.472700000000     0.878100000000     0.570600000000     0.100819   
O1       O      0.604140000000     0.048660000000     0.503400000000    -0.840283   
C1       C      0.618570000000     0.031290000000     0.531290000000     0.705437   
C2       C      0.655660000000     0.045640000000     0.545640000000    -0.399456   
O4       O      0.587000000000     0.030800000000     0.429100000000    -0.0817925  
C4       C      0.590610000000     0.000000000000     0.409390000000    -0.366739   
O6       O      0.591000000000     0.044900000000     0.431900000000    -0.74085    
C5       C      0.621900000000     0.027300000000     0.429400000000     0.100928   
O1       O      0.451340000000     0.854140000000     0.253400000000    -0.840332   
C1       C      0.468710000000     0.868570000000     0.281290000000     0.705478   
C3       C      0.470620000000     0.921930000000     0.328070000000     0.303867   
H3       H      0.492800000000     0.910900000000     0.339100000000    -0.0568519  
C2       C      0.454360000000     0.905660000000     0.295640000000    -0.399538   
O4       O      0.469200000000     0.837000000000     0.179100000000    -0.0815354  
C4       C      0.500000000000     0.840610000000     0.159390000000    -0.366759   
O6       O      0.455100000000     0.841000000000     0.181900000000    -0.741099   
C5       C      0.472700000000     0.871900000000     0.179400000000     0.1008     
Zr1      Zr     0.702960000000     0.702960000000     0.976610000000     4.13678    
O1       O      0.645860000000     0.701340000000     0.003400000000    -0.840124   
C3       C      0.578070000000     0.720620000000     0.078070000000     0.303831   
H3       H      0.589100000000     0.742800000000     0.089100000000    -0.0568428  
O3       O      0.734520000000     0.734520000000     0.934410000000     6.84473    
O4       O      0.663000000000     0.719200000000     0.929100000000    -0.0819469  
C4       C      0.659390000000     0.750000000000     0.909390000000    -0.366749   
O7       O      0.740050000000     0.740050000000     0.947940000000    -7.91716    
O6       O      0.659000000000     0.705100000000     0.931900000000    -0.740672   
C5       C      0.628100000000     0.722700000000     0.929400000000     0.100661   
Zr1      Zr     0.797040000000     0.952960000000     0.726610000000     4.13733    
O1       O      0.798660000000     0.895860000000     0.753400000000    -0.840279   
C1       C      0.781290000000     0.881430000000     0.781290000000     0.705436   
C2       C      0.795640000000     0.844340000000     0.795640000000    -0.399465   
O3       O      0.765480000000     0.984520000000     0.684410000000     6.84468    
O4       O      0.780800000000     0.913000000000     0.679100000000    -0.0811925  
C4       C      0.750000000000     0.909390000000     0.659390000000    -0.366749   
O2AA     O      0.875000000000     0.875000000000     0.854400000000    -0.0136366  
O7       O      0.759950000000     0.990050000000     0.697940000000    -7.91737    
O6       O      0.794900000000     0.909000000000     0.681900000000    -0.741396   
C5       C      0.777300000000     0.878100000000     0.679400000000     0.100823   
O1       O      0.746600000000     0.104140000000     0.701340000000    -0.840334   
C1       C      0.718710000000     0.118570000000     0.718710000000     0.70549    
C2       C      0.704360000000     0.155660000000     0.704360000000    -0.399525   
O4       O      0.820900000000     0.087000000000     0.719200000000    -0.0817799  
C4       C      0.840610000000     0.090610000000     0.750000000000    -0.366769   
O6       O      0.818100000000     0.091000000000     0.705100000000    -0.740863   
C5       C      0.820600000000     0.121900000000     0.722700000000     0.100812   
Zr1      Zr     0.273390000000     0.202960000000     0.047040000000     4.1375     
O1       O      0.246600000000     0.145860000000     0.048660000000    -0.840281   
O3       O      0.315590000000     0.234520000000     0.015480000000     6.8448     
O4       O      0.320900000000     0.163000000000     0.030800000000    -0.0817863  
O2AA     O      0.145600000000     0.125000000000     0.125000000000    -0.0136413  
O7       O      0.302060000000     0.240050000000     0.009950000000    -7.91721    
O6       O      0.318100000000     0.159000000000     0.044900000000    -0.740859   
C5       C      0.320600000000     0.128100000000     0.027300000000     0.100959   
Zr1      Zr     0.297040000000     0.523390000000     0.797040000000     4.13745    
O1       O      0.354140000000     0.496600000000     0.798660000000    -0.840326   
C3       C      0.421930000000     0.421930000000     0.779380000000     0.303846   
H3       H      0.410900000000     0.410900000000     0.757200000000    -0.0568471  
O3       O      0.265480000000     0.565590000000     0.765480000000     6.84465    
O4       O      0.337000000000     0.570900000000     0.780800000000    -0.0815669  
C4       C      0.340610000000     0.590610000000     0.750000000000    -0.366755   
O2AA     O      0.375000000000     0.395600000000     0.875000000000    -0.0136374  
O7       O      0.259950000000     0.552060000000     0.759950000000    -7.91716    
O6       O      0.341000000000     0.568100000000     0.794900000000    -0.741072   
C5       C      0.371900000000     0.570600000000     0.777300000000     0.100821   
O1       O      0.003400000000     0.604140000000     0.548660000000    -0.84012    
C1       C      0.031290000000     0.618570000000     0.531290000000     0.705437   
C3       C      0.078070000000     0.671930000000     0.529380000000     0.30383    
H3       H      0.089100000000     0.660900000000     0.507200000000    -0.0568393  
C2       C      0.045640000000     0.655660000000     0.545640000000    -0.399456   
O4       O      0.929100000000     0.587000000000     0.530800000000    -0.0819404  
O6       O      0.931900000000     0.591000000000     0.544900000000    -0.740672   
C5       C      0.929400000000     0.621900000000     0.527300000000     0.100661   
Zr1      Zr     0.452960000000     0.226610000000     0.797040000000     4.1375     
O1       O      0.395860000000     0.253400000000     0.798660000000    -0.840331   
O3       O      0.484520000000     0.184410000000     0.765480000000     6.84485    
O4       O      0.413000000000     0.179100000000     0.780800000000    -0.0815355  
C4       C      0.409390000000     0.159390000000     0.750000000000    -0.366773   
O7       O      0.490050000000     0.197940000000     0.759950000000    -7.91737    
O6       O      0.409000000000     0.181900000000     0.794900000000    -0.74111    
C5       C      0.378100000000     0.179400000000     0.777300000000     0.100846   
O1       O      0.003400000000     0.645860000000     0.701340000000    -0.840124   
C1       C      0.031290000000     0.631430000000     0.718710000000     0.705438   
C3       C      0.078070000000     0.578070000000     0.720620000000     0.303831   
H3       H      0.089100000000     0.589100000000     0.742800000000    -0.0568428  
C2       C      0.045640000000     0.594340000000     0.704360000000    -0.399457   
O4       O      0.929100000000     0.663000000000     0.719200000000    -0.0819469  
C4       C      0.909390000000     0.659390000000     0.750000000000    -0.366749   
O6       O      0.931900000000     0.659000000000     0.705100000000    -0.740672   
C5       C      0.929400000000     0.628100000000     0.722700000000     0.100661   
Zr1      Zr     0.297040000000     0.726610000000     0.452960000000     4.13751    
O1       O      0.354140000000     0.753400000000     0.451340000000    -0.840333   
C3       C      0.421930000000     0.828070000000     0.470620000000     0.303838   
H3       H      0.410900000000     0.839100000000     0.492800000000    -0.0568371  
O3       O      0.265480000000     0.684410000000     0.484520000000     6.84501    
O4       O      0.337000000000     0.679100000000     0.469200000000    -0.0815635  
O7       O      0.259950000000     0.697940000000     0.490050000000    -7.91754    
O6       O      0.341000000000     0.681900000000     0.455100000000    -0.741087   
C5       C      0.371900000000     0.679400000000     0.472700000000     0.100828   
O1       O      0.895860000000     0.996600000000     0.951340000000    -0.840524   
C1       C      0.881430000000     0.968710000000     0.968710000000     0.705478   
C2       C      0.844340000000     0.954360000000     0.954360000000    -0.399609   
O4       O      0.913000000000     0.070900000000     0.969200000000    -0.0797442  
O6       O      0.909000000000     0.068100000000     0.955100000000    -0.742843   
C5       C      0.878100000000     0.070600000000     0.972700000000     0.100755   
O1       O      0.298660000000     0.253400000000     0.895860000000    -0.840285   
C3       C      0.279380000000     0.328070000000     0.828070000000     0.303838   
H3       H      0.257200000000     0.339100000000     0.839100000000    -0.0568345  
O4       O      0.280800000000     0.179100000000     0.913000000000    -0.0811778  
O6       O      0.294900000000     0.181900000000     0.909000000000    -0.741409   
C5       C      0.277300000000     0.179400000000     0.878100000000     0.100845   
Zr1      Zr     0.273390000000     0.047040000000     0.202960000000     4.1375     
O1       O      0.246600000000     0.048660000000     0.145860000000    -0.840281   
C3       C      0.171930000000     0.029380000000     0.078070000000     0.303797   
H3       H      0.160900000000     0.007200000000     0.089100000000    -0.0567857  
O3       O      0.315590000000     0.015480000000     0.234520000000     6.8448     
O4       O      0.320900000000     0.030800000000     0.163000000000    -0.0817863  
O7       O      0.302060000000     0.009950000000     0.240050000000    -7.91721    
O6       O      0.318100000000     0.044900000000     0.159000000000    -0.740859   
C5       C      0.320600000000     0.027300000000     0.128100000000     0.100959   
Zr1      Zr     0.452960000000     0.023390000000     0.452960000000     4.1381     
O1       O      0.451340000000     0.996600000000     0.395860000000    -0.840567   
C1       C      0.468710000000     0.968710000000     0.381430000000     0.705496   
C2       C      0.454360000000     0.954360000000     0.344340000000    -0.399575   
O3       O      0.484520000000     0.065590000000     0.484520000000     6.84415    
O4       O      0.469200000000     0.070900000000     0.413000000000    -0.0813254  
O7       O      0.490050000000     0.052060000000     0.490050000000    -7.91672    
O6       O      0.455100000000     0.068100000000     0.409000000000    -0.741321   
C5       C      0.472700000000     0.070600000000     0.378100000000     0.100965   
Zr1      Zr     0.476610000000     0.202960000000     0.702960000000     4.13751    
O1       O      0.503400000000     0.201340000000     0.645860000000    -0.840339   
C1       C      0.531290000000     0.218710000000     0.631430000000     0.705478   
C2       C      0.545640000000     0.204360000000     0.594340000000    -0.399518   
O3       O      0.434410000000     0.234520000000     0.734520000000     6.84502    
O4       O      0.429100000000     0.219200000000     0.663000000000    -0.0815493  
O2AA     O      0.604400000000     0.125000000000     0.625000000000    -0.0136407  
O7       O      0.447940000000     0.240050000000     0.740050000000    -7.91755    
O6       O      0.431900000000     0.205100000000     0.659000000000    -0.741101   
C5       C      0.429400000000     0.222700000000     0.628100000000     0.100831   
O1       O      0.298660000000     0.996600000000     0.354140000000    -0.840565   
C3       C      0.279380000000     0.921930000000     0.421930000000     0.303867   
H3       H      0.257200000000     0.910900000000     0.410900000000    -0.05685    
O4       O      0.280800000000     0.070900000000     0.337000000000    -0.0813282  
O6       O      0.294900000000     0.068100000000     0.341000000000    -0.741315   
C5       C      0.277300000000     0.070600000000     0.371900000000     0.100966   
Zr1      Zr     0.476610000000     0.047040000000     0.547040000000     4.13751    
O1       O      0.503400000000     0.048660000000     0.604140000000    -0.840283   
C1       C      0.531290000000     0.031290000000     0.618570000000     0.705437   
C2       C      0.545640000000     0.045640000000     0.655660000000    -0.399456   
O3       O      0.434410000000     0.015480000000     0.515480000000     6.84486    
O4       O      0.429100000000     0.030800000000     0.587000000000    -0.0817925  
O7       O      0.447940000000     0.009950000000     0.509950000000    -7.91726    
O6       O      0.431900000000     0.044900000000     0.591000000000    -0.74085    
C5       C      0.429400000000     0.027300000000     0.621900000000     0.100928   
O1       O      0.451340000000     0.253400000000     0.854140000000    -0.840332   
C1       C      0.468710000000     0.281290000000     0.868570000000     0.705478   
C2       C      0.454360000000     0.295640000000     0.905660000000    -0.399538   
O4       O      0.469200000000     0.179100000000     0.837000000000    -0.0815354  
O6       O      0.455100000000     0.181900000000     0.841000000000    -0.741099   
C5       C      0.472700000000     0.179400000000     0.871900000000     0.1008     
O1       O      0.246600000000     0.201340000000     0.104140000000    -0.840337   
C3       C      0.171930000000     0.220620000000     0.171930000000     0.303863   
H3       H      0.160900000000     0.242800000000     0.160900000000    -0.0568571  
O4       O      0.320900000000     0.219200000000     0.087000000000    -0.0817054  
O6       O      0.318100000000     0.205100000000     0.091000000000    -0.740936   
C5       C      0.320600000000     0.222700000000     0.121900000000     0.100852   
Zr1      Zr     0.952960000000     0.797040000000     0.726610000000     4.13733    
O1       O      0.895860000000     0.798660000000     0.753400000000    -0.840279   
C1       C      0.881430000000     0.781290000000     0.781290000000     0.705436   
C3       C      0.828070000000     0.779380000000     0.828070000000     0.303815   
H3       H      0.839100000000     0.757200000000     0.839100000000    -0.0568196  
C2       C      0.844340000000     0.795640000000     0.795640000000    -0.399465   
O3       O      0.984520000000     0.765480000000     0.684410000000     6.84468    
O4       O      0.913000000000     0.780800000000     0.679100000000    -0.0811925  
O7       O      0.990050000000     0.759950000000     0.697940000000    -7.91737    
O6       O      0.909000000000     0.794900000000     0.681900000000    -0.741396   
C5       C      0.878100000000     0.777300000000     0.679400000000     0.100823   
O1       O      0.701340000000     0.645860000000     0.003400000000    -0.840124   
C1       C      0.718710000000     0.631430000000     0.031290000000     0.705438   
C3       C      0.720620000000     0.578070000000     0.078070000000     0.303831   
H3       H      0.742800000000     0.589100000000     0.089100000000    -0.0568428  
C2       C      0.704360000000     0.594340000000     0.045640000000    -0.399457   
O4       O      0.719200000000     0.663000000000     0.929100000000    -0.0819469  
O6       O      0.705100000000     0.659000000000     0.931900000000    -0.740672   
C5       C      0.722700000000     0.628100000000     0.929400000000     0.100661   
O1       O      0.854140000000     0.451340000000     0.253400000000    -0.840332   
C1       C      0.868570000000     0.468710000000     0.281290000000     0.705478   
C2       C      0.905660000000     0.454360000000     0.295640000000    -0.399538   
O4       O      0.837000000000     0.469200000000     0.179100000000    -0.0815354  
O6       O      0.841000000000     0.455100000000     0.181900000000    -0.741099   
C5       C      0.871900000000     0.472700000000     0.179400000000     0.1008     
Zr1      Zr     0.047040000000     0.547040000000     0.476610000000     4.13751    
O1       O      0.048660000000     0.604140000000     0.503400000000    -0.840283   
O3       O      0.015480000000     0.515480000000     0.434410000000     6.84486    
O4       O      0.030800000000     0.587000000000     0.429100000000    -0.0817925  
O7       O      0.009950000000     0.509950000000     0.447940000000    -7.91726    
O6       O      0.044900000000     0.591000000000     0.431900000000    -0.74085    
C5       C      0.027300000000     0.621900000000     0.429400000000     0.100928   
Zr1      Zr     0.952960000000     0.452960000000     0.523390000000     4.13731    
O1       O      0.895860000000     0.451340000000     0.496600000000    -0.840282   
C3       C      0.828070000000     0.470620000000     0.421930000000     0.303838   
H3       H      0.839100000000     0.492800000000     0.410900000000    -0.0568371  
O3       O      0.984520000000     0.484520000000     0.565590000000     6.84459    
O4       O      0.913000000000     0.469200000000     0.570900000000    -0.0812077  
O7       O      0.990050000000     0.490050000000     0.552060000000    -7.91728    
O6       O      0.909000000000     0.455100000000     0.568100000000    -0.741377   
C5       C      0.878100000000     0.472700000000     0.570600000000     0.100819   
Zr1      Zr     0.047040000000     0.702960000000     0.773390000000     4.13747    
O1       O      0.048660000000     0.645860000000     0.746600000000    -0.840284   
O3       O      0.015480000000     0.734520000000     0.815590000000     6.84473    
O4       O      0.030800000000     0.663000000000     0.820900000000    -0.0818523  
O7       O      0.009950000000     0.740050000000     0.802060000000    -7.91713    
O6       O      0.044900000000     0.659000000000     0.818100000000    -0.740793   
C5       C      0.027300000000     0.628100000000     0.820600000000     0.100897   
O1       O      0.854140000000     0.798660000000     0.996600000000    -0.840556   
C1       C      0.868570000000     0.781290000000     0.968710000000     0.705493   
C2       C      0.905660000000     0.795640000000     0.954360000000    -0.399588   
O4       O      0.837000000000     0.780800000000     0.070900000000    -0.0813141  
O6       O      0.841000000000     0.794900000000     0.068100000000    -0.741313   
C5       C      0.871900000000     0.777300000000     0.070600000000     0.100915   
O1       O      0.701340000000     0.604140000000     0.246600000000    -0.840331   
C3       C      0.720620000000     0.671930000000     0.171930000000     0.303859   
H3       H      0.742800000000     0.660900000000     0.160900000000    -0.0568577  
O4       O      0.719200000000     0.587000000000     0.320900000000    -0.0815767  
O6       O      0.705100000000     0.591000000000     0.318100000000    -0.741064   
C5       C      0.722700000000     0.621900000000     0.320600000000     0.100815   
Zr1      Zr     0.726610000000     0.452960000000     0.297040000000     4.13751    
O1       O      0.753400000000     0.395860000000     0.298660000000    -0.840336   
C3       C      0.828070000000     0.328070000000     0.279380000000     0.303838   
H3       H      0.839100000000     0.339100000000     0.257200000000    -0.0568345  
O3       O      0.684410000000     0.484520000000     0.265480000000     6.84501    
O4       O      0.679100000000     0.413000000000     0.280800000000    -0.081562   
O7       O      0.697940000000     0.490050000000     0.259950000000    -7.91754    
O6       O      0.681900000000     0.409000000000     0.294900000000    -0.741092   
C5       C      0.679400000000     0.378100000000     0.277300000000     0.100835   
O1       O      0.253400000000     0.354140000000     0.951340000000    -0.840345   
C1       C      0.281290000000     0.368570000000     0.968710000000     0.705496   
C3       C      0.328070000000     0.421930000000     0.970620000000     0.30388    
H3       H      0.339100000000     0.410900000000     0.992800000000    -0.0569275  
C2       C      0.295640000000     0.405660000000     0.954360000000    -0.399575   
O4       O      0.179100000000     0.337000000000     0.969200000000    -0.0803209  
C4       C      0.159390000000     0.340610000000     0.000000000000    -0.366743   
O6       O      0.181900000000     0.341000000000     0.955100000000    -0.742328   
C5       C      0.179400000000     0.371900000000     0.972700000000     0.100641   
O1       O      0.145860000000     0.003400000000     0.201340000000    -0.84012    
C1       C      0.131430000000     0.031290000000     0.218710000000     0.705431   
C2       C      0.094340000000     0.045640000000     0.204360000000    -0.399428   
O4       O      0.163000000000     0.929100000000     0.219200000000    -0.0819183  
O6       O      0.159000000000     0.931900000000     0.205100000000    -0.740702   
C5       C      0.128100000000     0.929400000000     0.222700000000     0.100701   
Zr1      Zr     0.523390000000     0.952960000000     0.452960000000     4.13731    
O1       O      0.496600000000     0.895860000000     0.451340000000    -0.840282   
O3       O      0.565590000000     0.984520000000     0.484520000000     6.84459    
O4       O      0.570900000000     0.913000000000     0.469200000000    -0.0812077  
C4       C      0.590610000000     0.909390000000     0.500000000000    -0.366738   
O2AA     O      0.395600000000     0.875000000000     0.375000000000    -0.0136374  
O7       O      0.552060000000     0.990050000000     0.490050000000    -7.91728    
O6       O      0.568100000000     0.909000000000     0.455100000000    -0.741377   
C5       C      0.570600000000     0.878100000000     0.472700000000     0.100819   
O1       O      0.104140000000     0.246600000000     0.201340000000    -0.840337   
C1       C      0.118570000000     0.218710000000     0.218710000000     0.705491   
C3       C      0.171930000000     0.171930000000     0.220620000000     0.303863   
H3       H      0.160900000000     0.160900000000     0.242800000000    -0.0568571  
C2       C      0.155660000000     0.204360000000     0.204360000000    -0.399526   
O4       O      0.087000000000     0.320900000000     0.219200000000    -0.0817054  
O6       O      0.091000000000     0.318100000000     0.205100000000    -0.740936   
C5       C      0.121900000000     0.320600000000     0.222700000000     0.100852   
Zr1      Zr     0.523390000000     0.797040000000     0.297040000000     4.13745    
O1       O      0.496600000000     0.854140000000     0.298660000000    -0.840329   
O3       O      0.565590000000     0.765480000000     0.265480000000     6.84465    
O4       O      0.570900000000     0.837000000000     0.280800000000    -0.0815653  
O7       O      0.552060000000     0.759950000000     0.259950000000    -7.91716    
O6       O      0.568100000000     0.841000000000     0.294900000000    -0.741066   
C5       C      0.570600000000     0.871900000000     0.277300000000     0.100781   
O1       O      0.145860000000     0.746600000000     0.548660000000    -0.840329   
C1       C      0.131430000000     0.718710000000     0.531290000000     0.705472   
C2       C      0.094340000000     0.704360000000     0.545640000000    -0.399489   
O4       O      0.163000000000     0.820900000000     0.530800000000    -0.081611   
C4       C      0.159390000000     0.840610000000     0.500000000000    -0.366759   
O6       O      0.159000000000     0.818100000000     0.544900000000    -0.741039   
C5       C      0.128100000000     0.820600000000     0.527300000000     0.100822   
Zr1      Zr     0.547040000000     0.476610000000     0.047040000000     4.13751    
O1       O      0.604140000000     0.503400000000     0.048660000000    -0.840283   
C3       C      0.671930000000     0.578070000000     0.029380000000     0.303819   
H3       H      0.660900000000     0.589100000000     0.007200000000    -0.0567955  
O3       O      0.515480000000     0.434410000000     0.015480000000     6.84486    
O4       O      0.587000000000     0.429100000000     0.030800000000    -0.0817925  
C4       C      0.590610000000     0.409390000000     0.000000000000    -0.366739   
O7       O      0.509950000000     0.447940000000     0.009950000000    -7.91726    
O6       O      0.591000000000     0.431900000000     0.044900000000    -0.74085    
C5       C      0.621900000000     0.429400000000     0.027300000000     0.100928   
O1       O      0.701340000000     0.746600000000     0.104140000000    -0.840334   
O4       O      0.719200000000     0.820900000000     0.087000000000    -0.0817799  
O6       O      0.705100000000     0.818100000000     0.091000000000    -0.740863   
C5       C      0.722700000000     0.820600000000     0.121900000000     0.100812   
Zr1      Zr     0.726610000000     0.952960000000     0.797040000000     4.13733    
O1       O      0.753400000000     0.951340000000     0.854140000000    -0.840343   
C3       C      0.828070000000     0.970620000000     0.921930000000     0.303877   
H3       H      0.839100000000     0.992800000000     0.910900000000    -0.0569146  
O3       O      0.684410000000     0.984520000000     0.765480000000     6.84468    
O4       O      0.679100000000     0.969200000000     0.837000000000    -0.0803399  
O7       O      0.697940000000     0.990050000000     0.759950000000    -7.91737    
O6       O      0.681900000000     0.955100000000     0.841000000000    -0.742302   
C5       C      0.679400000000     0.972700000000     0.871900000000     0.100582   
Zr1      Zr     0.547040000000     0.976610000000     0.547040000000     4.13675    
O1       O      0.548660000000     0.003400000000     0.604140000000    -0.84012    
O3       O      0.515480000000     0.934410000000     0.515480000000     6.84455    
O4       O      0.530800000000     0.929100000000     0.587000000000    -0.0819404  
O7       O      0.509950000000     0.947940000000     0.509950000000    -7.91697    
O6       O      0.544900000000     0.931900000000     0.591000000000    -0.740672   
C5       C      0.527300000000     0.929400000000     0.621900000000     0.100661   
O1       O      0.496600000000     0.798660000000     0.354140000000    -0.840326   
C1       C      0.468710000000     0.781290000000     0.368570000000     0.705474   
C2       C      0.454360000000     0.795640000000     0.405660000000    -0.399504   
O4       O      0.570900000000     0.780800000000     0.337000000000    -0.0815669  
O6       O      0.568100000000     0.794900000000     0.341000000000    -0.741072   
C5       C      0.570600000000     0.777300000000     0.371900000000     0.100821   
O1       O      0.701340000000     0.003400000000     0.645860000000    -0.840124   
C3       C      0.720620000000     0.078070000000     0.578070000000     0.303831   
H3       H      0.742800000000     0.089100000000     0.589100000000    -0.0568428  
O4       O      0.719200000000     0.929100000000     0.663000000000    -0.0819469  
O6       O      0.705100000000     0.931900000000     0.659000000000    -0.740672   
C5       C      0.722700000000     0.929400000000     0.628100000000     0.100661   
O1       O      0.496600000000     0.951340000000     0.395860000000    -0.840345   
O4       O      0.570900000000     0.969200000000     0.413000000000    -0.0803516  
O6       O      0.568100000000     0.955100000000     0.409000000000    -0.742299   
C5       C      0.570600000000     0.972700000000     0.378100000000     0.100622   
O1       O      0.548660000000     0.746600000000     0.145860000000    -0.840329   
C1       C      0.531290000000     0.718710000000     0.131430000000     0.705472   
C2       C      0.545640000000     0.704360000000     0.094340000000    -0.399489   
O4       O      0.530800000000     0.820900000000     0.163000000000    -0.081611   
O6       O      0.544900000000     0.818100000000     0.159000000000    -0.741039   
C5       C      0.527300000000     0.820600000000     0.128100000000     0.100822   
O1       O      0.753400000000     0.798660000000     0.895860000000    -0.840279   
O4       O      0.679100000000     0.780800000000     0.913000000000    -0.0811925  
O6       O      0.681900000000     0.794900000000     0.909000000000    -0.741396   
C5       C      0.679400000000     0.777300000000     0.878100000000     0.100823   
Zr1      Zr     0.047040000000     0.202960000000     0.273390000000     4.1375     
O1       O      0.104140000000     0.201340000000     0.246600000000    -0.840337   
O3       O      0.015480000000     0.234520000000     0.315590000000     6.8448     
O4       O      0.087000000000     0.219200000000     0.320900000000    -0.0817054  
O7       O      0.009950000000     0.240050000000     0.302060000000    -7.91721    
O6       O      0.091000000000     0.205100000000     0.318100000000    -0.740936   
C5       C      0.121900000000     0.222700000000     0.320600000000     0.100852   
O1       O      0.298660000000     0.354140000000     0.996600000000    -0.840565   
C3       C      0.279380000000     0.421930000000     0.921930000000     0.303867   
H3       H      0.257200000000     0.410900000000     0.910900000000    -0.05685    
O4       O      0.280800000000     0.337000000000     0.070900000000    -0.0813282  
O6       O      0.294900000000     0.341000000000     0.068100000000    -0.741315   
C5       C      0.277300000000     0.371900000000     0.070600000000     0.100966   
O1       O      0.145860000000     0.548660000000     0.746600000000    -0.840329   
C1       C      0.131430000000     0.531290000000     0.718710000000     0.705472   
C2       C      0.094340000000     0.545640000000     0.704360000000    -0.399489   
O4       O      0.163000000000     0.530800000000     0.820900000000    -0.081611   
O6       O      0.159000000000     0.544900000000     0.818100000000    -0.741039   
C5       C      0.128100000000     0.527300000000     0.820600000000     0.100822   
O1       O      0.951340000000     0.395860000000     0.496600000000    -0.840345   
O4       O      0.969200000000     0.413000000000     0.570900000000    -0.0803516  
O6       O      0.955100000000     0.409000000000     0.568100000000    -0.742299   
C5       C      0.972700000000     0.378100000000     0.570600000000     0.100622   
O1       O      0.104140000000     0.548660000000     0.503400000000    -0.840337   
C3       C      0.171930000000     0.529380000000     0.578070000000     0.303858   
H3       H      0.160900000000     0.507200000000     0.589100000000    -0.056853   
O4       O      0.087000000000     0.530800000000     0.429100000000    -0.0817098  
O6       O      0.091000000000     0.544900000000     0.431900000000    -0.740935   
C5       C      0.121900000000     0.527300000000     0.429400000000     0.10085    
Zr1      Zr     0.952960000000     0.297040000000     0.226610000000     4.13733    
O1       O      0.951340000000     0.354140000000     0.253400000000    -0.840345   
O3       O      0.984520000000     0.265480000000     0.184410000000     6.84467    
O4       O      0.969200000000     0.337000000000     0.179100000000    -0.0803209  
O7       O      0.990050000000     0.259950000000     0.197940000000    -7.91737    
O6       O      0.955100000000     0.341000000000     0.181900000000    -0.742328   
C5       C      0.972700000000     0.371900000000     0.179400000000     0.100641   
O1       O      0.145860000000     0.201340000000     0.003400000000    -0.84012    
C1       C      0.131430000000     0.218710000000     0.031290000000     0.705431   
C2       C      0.094340000000     0.204360000000     0.045640000000    -0.399428   
O4       O      0.163000000000     0.219200000000     0.929100000000    -0.0819183  
O6       O      0.159000000000     0.205100000000     0.931900000000    -0.740702   
C5       C      0.128100000000     0.222700000000     0.929400000000     0.100701   
O1       O      0.298660000000     0.395860000000     0.753400000000    -0.840336   
O4       O      0.280800000000     0.413000000000     0.679100000000    -0.081562   
O6       O      0.294900000000     0.409000000000     0.681900000000    -0.741092   
C5       C      0.277300000000     0.378100000000     0.679400000000     0.100835   
Zr1      Zr     0.273390000000     0.547040000000     0.702960000000     4.13748    
O1       O      0.246600000000     0.604140000000     0.701340000000    -0.840331   
C3       C      0.171930000000     0.671930000000     0.720620000000     0.303859   
H3       H      0.160900000000     0.660900000000     0.742800000000    -0.0568577  
O3       O      0.315590000000     0.515480000000     0.734520000000     6.84479    
O4       O      0.320900000000     0.587000000000     0.719200000000    -0.0815767  
O7       O      0.302060000000     0.509950000000     0.740050000000    -7.9173     
O6       O      0.318100000000     0.591000000000     0.705100000000    -0.741064   
C5       C      0.320600000000     0.621900000000     0.722700000000     0.100815   
O1       O      0.746600000000     0.645860000000     0.048660000000    -0.840284   
O4       O      0.820900000000     0.663000000000     0.030800000000    -0.0818523  
C4       C      0.840610000000     0.659390000000     0.000000000000    -0.366735   
O6       O      0.818100000000     0.659000000000     0.044900000000    -0.740793   
C5       C      0.820600000000     0.628100000000     0.027300000000     0.100897   
O1       O      0.854140000000     0.996600000000     0.798660000000    -0.840556   
C1       C      0.868570000000     0.968710000000     0.781290000000     0.705493   
C2       C      0.905660000000     0.954360000000     0.795640000000    -0.399588   
O4       O      0.837000000000     0.070900000000     0.780800000000    -0.0813141  
O6       O      0.841000000000     0.068100000000     0.794900000000    -0.741313   
C5       C      0.871900000000     0.070600000000     0.777300000000     0.100915   
O1       O      0.503400000000     0.104140000000     0.548660000000    -0.840337   
O4       O      0.429100000000     0.087000000000     0.530800000000    -0.0817098  
C4       C      0.409390000000     0.090610000000     0.500000000000    -0.366782   
O6       O      0.431900000000     0.091000000000     0.544900000000    -0.740935   
C5       C      0.429400000000     0.121900000000     0.527300000000     0.10085    
O1       O      0.895860000000     0.753400000000     0.798660000000    -0.840279   
C3       C      0.828070000000     0.828070000000     0.779380000000     0.303815   
H3       H      0.839100000000     0.839100000000     0.757200000000    -0.0568196  
O4       O      0.913000000000     0.679100000000     0.780800000000    -0.0811925  
O6       O      0.909000000000     0.681900000000     0.794900000000    -0.741396   
C5       C      0.878100000000     0.679400000000     0.777300000000     0.100823   
O1       O      0.503400000000     0.145860000000     0.701340000000    -0.840333   
O4       O      0.429100000000     0.163000000000     0.719200000000    -0.0815573  
O6       O      0.431900000000     0.159000000000     0.705100000000    -0.741096   
C5       C      0.429400000000     0.128100000000     0.722700000000     0.100853   
O1       O      0.854140000000     0.253400000000     0.451340000000    -0.840332   
C1       C      0.868570000000     0.281290000000     0.468710000000     0.705478   
C2       C      0.905660000000     0.295640000000     0.454360000000    -0.399538   
O4       O      0.837000000000     0.179100000000     0.469200000000    -0.0815354  
C4       C      0.840610000000     0.159390000000     0.500000000000    -0.366759   
O6       O      0.841000000000     0.181900000000     0.455100000000    -0.741099   
C5       C      0.871900000000     0.179400000000     0.472700000000     0.1008     
Zr1      Zr     0.452960000000     0.523390000000     0.952960000000     4.13731    
O1       O      0.395860000000     0.496600000000     0.951340000000    -0.840345   
O3       O      0.484520000000     0.565590000000     0.984520000000     6.84459    
O4       O      0.413000000000     0.570900000000     0.969200000000    -0.0803516  
C4       C      0.409390000000     0.590610000000     0.000000000000    -0.366739   
O7       O      0.490050000000     0.552060000000     0.990050000000    -7.91728    
O6       O      0.409000000000     0.568100000000     0.955100000000    -0.742299   
C5       C      0.378100000000     0.570600000000     0.972700000000     0.100622   
O1       O      0.298660000000     0.753400000000     0.395860000000    -0.840336   
C3       C      0.279380000000     0.828070000000     0.328070000000     0.303838   
H3       H      0.257200000000     0.839100000000     0.339100000000    -0.0568345  
O4       O      0.280800000000     0.679100000000     0.413000000000    -0.081562   
O6       O      0.294900000000     0.681900000000     0.409000000000    -0.741092   
C5       C      0.277300000000     0.679400000000     0.378100000000     0.100835   
O1       O      0.246600000000     0.548660000000     0.645860000000    -0.840335   
O4       O      0.320900000000     0.530800000000     0.663000000000    -0.0815664  
O6       O      0.318100000000     0.544900000000     0.659000000000    -0.741079   
C5       C      0.320600000000     0.527300000000     0.628100000000     0.100822   
O1       O      0.451340000000     0.496600000000     0.895860000000    -0.840282   
C1       C      0.468710000000     0.468710000000     0.881430000000     0.705442   
C2       C      0.454360000000     0.454360000000     0.844340000000    -0.399489   
O4       O      0.469200000000     0.570900000000     0.913000000000    -0.0812077  
O6       O      0.455100000000     0.568100000000     0.909000000000    -0.741377   
C5       C      0.472700000000     0.570600000000     0.878100000000     0.100819   
Zr1      Zr     0.476610000000     0.702960000000     0.202960000000     4.13751    
O1       O      0.503400000000     0.701340000000     0.145860000000    -0.840333   
O3       O      0.434410000000     0.734520000000     0.234520000000     6.84502    
O4       O      0.429100000000     0.719200000000     0.163000000000    -0.0815573  
O2AA     O      0.604400000000     0.625000000000     0.125000000000    -0.0136407  
O7       O      0.447940000000     0.740050000000     0.240050000000    -7.91755    
O6       O      0.431900000000     0.705100000000     0.159000000000    -0.741096   
C5       C      0.429400000000     0.722700000000     0.128100000000     0.100853   
O1       O      0.298660000000     0.496600000000     0.854140000000    -0.840329   
O4       O      0.280800000000     0.570900000000     0.837000000000    -0.0815653  
O6       O      0.294900000000     0.568100000000     0.841000000000    -0.741066   
C5       C      0.277300000000     0.570600000000     0.871900000000     0.100781   
Zr1      Zr     0.476610000000     0.547040000000     0.047040000000     4.13751    
O1       O      0.503400000000     0.548660000000     0.104140000000    -0.840337   
C1       C      0.531290000000     0.531290000000     0.118570000000     0.70549    
C2       C      0.545640000000     0.545640000000     0.155660000000    -0.39952    
O3       O      0.434410000000     0.515480000000     0.015480000000     6.84486    
O4       O      0.429100000000     0.530800000000     0.087000000000    -0.0817098  
O7       O      0.447940000000     0.509950000000     0.009950000000    -7.91726    
O6       O      0.431900000000     0.544900000000     0.091000000000    -0.740935   
C5       C      0.429400000000     0.527300000000     0.121900000000     0.10085    
O1       O      0.451340000000     0.753400000000     0.354140000000    -0.840333   
O4       O      0.469200000000     0.679100000000     0.337000000000    -0.0815635  
O6       O      0.455100000000     0.681900000000     0.341000000000    -0.741087   
C5       C      0.472700000000     0.679400000000     0.371900000000     0.100828   
O1       O      0.246600000000     0.701340000000     0.604140000000    -0.840331   
C3       C      0.171930000000     0.720620000000     0.671930000000     0.303859   
H3       H      0.160900000000     0.742800000000     0.660900000000    -0.0568577  
O4       O      0.320900000000     0.719200000000     0.587000000000    -0.0815767  
O6       O      0.318100000000     0.705100000000     0.591000000000    -0.741064   
C5       C      0.320600000000     0.722700000000     0.621900000000     0.100815   
O1       O      0.895860000000     0.298660000000     0.253400000000    -0.840285   
C1       C      0.881430000000     0.281290000000     0.281290000000     0.705442   
C3       C      0.828070000000     0.279380000000     0.328070000000     0.303838   
H3       H      0.839100000000     0.257200000000     0.339100000000    -0.0568345  
C2       C      0.844340000000     0.295640000000     0.295640000000    -0.399486   
O4       O      0.913000000000     0.280800000000     0.179100000000    -0.0811778  
O6       O      0.909000000000     0.294900000000     0.181900000000    -0.741409   
C5       C      0.878100000000     0.277300000000     0.179400000000     0.100845   
O1       O      0.701340000000     0.145860000000     0.503400000000    -0.840333   
C1       C      0.718710000000     0.131430000000     0.531290000000     0.705472   
C2       C      0.704360000000     0.094340000000     0.545640000000    -0.399489   
O4       O      0.719200000000     0.163000000000     0.429100000000    -0.0815573  
O6       O      0.705100000000     0.159000000000     0.431900000000    -0.741096   
C5       C      0.722700000000     0.128100000000     0.429400000000     0.100853   
O1       O      0.854140000000     0.951340000000     0.753400000000    -0.840343   
O4       O      0.837000000000     0.969200000000     0.679100000000    -0.0803399  
O6       O      0.841000000000     0.955100000000     0.681900000000    -0.742302   
C5       C      0.871900000000     0.972700000000     0.679400000000     0.100582   
Zr1      Zr     0.047040000000     0.047040000000     0.976610000000     4.13678    
O1       O      0.048660000000     0.104140000000     0.003400000000    -0.840072   
O3       O      0.015480000000     0.015480000000     0.934410000000     6.84457    
O4       O      0.030800000000     0.087000000000     0.929100000000    -0.0823193  
O7       O      0.009950000000     0.009950000000     0.947940000000    -7.91676    
O6       O      0.044900000000     0.091000000000     0.931900000000    -0.740291   
C5       C      0.027300000000     0.121900000000     0.929400000000     0.100795   
Zr1      Zr     0.952960000000     0.952960000000     0.023390000000     4.13775    
O1       O      0.895860000000     0.951340000000     0.996600000000    -0.840524   
O3       O      0.984520000000     0.984520000000     0.065590000000     6.84363    
O4       O      0.913000000000     0.969200000000     0.070900000000    -0.0797442  
O7       O      0.990050000000     0.990050000000     0.052060000000    -7.91654    
O6       O      0.909000000000     0.955100000000     0.068100000000    -0.742843   
C5       C      0.878100000000     0.972700000000     0.070600000000     0.100755   
O1       O      0.048660000000     0.145860000000     0.246600000000    -0.840281   
O4       O      0.030800000000     0.163000000000     0.320900000000    -0.0817863  
O6       O      0.044900000000     0.159000000000     0.318100000000    -0.740859   
C5       C      0.027300000000     0.128100000000     0.320600000000     0.100959   
O1       O      0.854140000000     0.298660000000     0.496600000000    -0.840329   
O4       O      0.837000000000     0.280800000000     0.570900000000    -0.0815653  
O6       O      0.841000000000     0.294900000000     0.568100000000    -0.741066   
C5       C      0.871900000000     0.277300000000     0.570600000000     0.100781   
O1       O      0.701340000000     0.104140000000     0.746600000000    -0.840334   
C3       C      0.720620000000     0.171930000000     0.671930000000     0.303859   
H3       H      0.742800000000     0.160900000000     0.660900000000    -0.0568577  
O4       O      0.719200000000     0.087000000000     0.820900000000    -0.0817799  
O6       O      0.705100000000     0.091000000000     0.818100000000    -0.740863   
C5       C      0.722700000000     0.121900000000     0.820600000000     0.100812   
O1       O      0.753400000000     0.895860000000     0.798660000000    -0.840279   
O4       O      0.679100000000     0.913000000000     0.780800000000    -0.0811925  
O6       O      0.681900000000     0.909000000000     0.794900000000    -0.741396   
C5       C      0.679400000000     0.878100000000     0.777300000000     0.100823   
O1       O      0.253400000000     0.854140000000     0.451340000000    -0.840332   
C1       C      0.281290000000     0.868570000000     0.468710000000     0.705478   
C3       C      0.328070000000     0.921930000000     0.470620000000     0.303867   
H3       H      0.339100000000     0.910900000000     0.492800000000    -0.0568519  
C2       C      0.295640000000     0.905660000000     0.454360000000    -0.399538   
O4       O      0.179100000000     0.837000000000     0.469200000000    -0.0815354  
O6       O      0.181900000000     0.841000000000     0.455100000000    -0.741099   
C5       C      0.179400000000     0.871900000000     0.472700000000     0.1008     
O1       O      0.145860000000     0.503400000000     0.701340000000    -0.840333   
O4       O      0.163000000000     0.429100000000     0.719200000000    -0.0815573  
O6       O      0.159000000000     0.431900000000     0.705100000000    -0.741096   
C5       C      0.128100000000     0.429400000000     0.722700000000     0.100853   
Zr1      Zr     0.523390000000     0.452960000000     0.952960000000     4.13731    
O1       O      0.496600000000     0.395860000000     0.951340000000    -0.840345   
O3       O      0.565590000000     0.484520000000     0.984520000000     6.84459    
O4       O      0.570900000000     0.413000000000     0.969200000000    -0.0803516  
O2AA     O      0.395600000000     0.375000000000     0.875000000000    -0.0136374  
O7       O      0.552060000000     0.490050000000     0.990050000000    -7.91728    
O6       O      0.568100000000     0.409000000000     0.955100000000    -0.742299   
C5       C      0.570600000000     0.378100000000     0.972700000000     0.100622   
O1       O      0.104140000000     0.746600000000     0.701340000000    -0.840334   
C1       C      0.118570000000     0.718710000000     0.718710000000     0.70549    
C2       C      0.155660000000     0.704360000000     0.704360000000    -0.399525   
O4       O      0.087000000000     0.820900000000     0.719200000000    -0.0817799  
O6       O      0.091000000000     0.818100000000     0.705100000000    -0.740863   
C5       C      0.121900000000     0.820600000000     0.722700000000     0.100812   
Zr1      Zr     0.523390000000     0.297040000000     0.797040000000     4.13745    
O1       O      0.496600000000     0.354140000000     0.798660000000    -0.840326   
O3       O      0.565590000000     0.265480000000     0.765480000000     6.84465    
O4       O      0.570900000000     0.337000000000     0.780800000000    -0.0815669  
O7       O      0.552060000000     0.259950000000     0.759950000000    -7.91716    
O6       O      0.568100000000     0.341000000000     0.794900000000    -0.741072   
C5       C      0.570600000000     0.371900000000     0.777300000000     0.100821   
O1       O      0.145860000000     0.246600000000     0.048660000000    -0.840281   
O4       O      0.163000000000     0.320900000000     0.030800000000    -0.0817863  
O6       O      0.159000000000     0.318100000000     0.044900000000    -0.740859   
C5       C      0.128100000000     0.320600000000     0.027300000000     0.100959   
O1       O      0.604140000000     0.003400000000     0.548660000000    -0.84012    
C3       C      0.671930000000     0.078070000000     0.529380000000     0.30383    
H3       H      0.660900000000     0.089100000000     0.507200000000    -0.0568393  
O4       O      0.587000000000     0.929100000000     0.530800000000    -0.0819404  
O6       O      0.591000000000     0.931900000000     0.544900000000    -0.740672   
C5       C      0.621900000000     0.929400000000     0.527300000000     0.100661   
O1       O      0.701340000000     0.246600000000     0.604140000000    -0.840331   
O4       O      0.719200000000     0.320900000000     0.587000000000    -0.0815767  
O6       O      0.705100000000     0.318100000000     0.591000000000    -0.741064   
C5       C      0.722700000000     0.320600000000     0.621900000000     0.100815   
O1       O      0.753400000000     0.451340000000     0.354140000000    -0.840333   
O4       O      0.679100000000     0.469200000000     0.337000000000    -0.0815635  
O6       O      0.681900000000     0.455100000000     0.341000000000    -0.741087   
C5       C      0.679400000000     0.472700000000     0.371900000000     0.100828   
O1       O      0.548660000000     0.503400000000     0.104140000000    -0.840337   
O4       O      0.530800000000     0.429100000000     0.087000000000    -0.0817098  
O6       O      0.544900000000     0.431900000000     0.091000000000    -0.740935   
C5       C      0.527300000000     0.429400000000     0.121900000000     0.10085    
O1       O      0.496600000000     0.298660000000     0.854140000000    -0.840329   
O4       O      0.570900000000     0.280800000000     0.837000000000    -0.0815653  
O6       O      0.568100000000     0.294900000000     0.841000000000    -0.741066   
C5       C      0.570600000000     0.277300000000     0.871900000000     0.100781   
O1       O      0.701340000000     0.503400000000     0.145860000000    -0.840333   
O4       O      0.719200000000     0.429100000000     0.163000000000    -0.0815573  
O6       O      0.705100000000     0.431900000000     0.159000000000    -0.741096   
C5       C      0.722700000000     0.429400000000     0.128100000000     0.100853   
O1       O      0.496600000000     0.451340000000     0.895860000000    -0.840282   
O4       O      0.570900000000     0.469200000000     0.913000000000    -0.0812077  
O6       O      0.568100000000     0.455100000000     0.909000000000    -0.741377   
C5       C      0.570600000000     0.472700000000     0.878100000000     0.100819   
O1       O      0.548660000000     0.246600000000     0.645860000000    -0.840335   
O4       O      0.530800000000     0.320900000000     0.663000000000    -0.0815664  
O6       O      0.544900000000     0.318100000000     0.659000000000    -0.741079   
C5       C      0.527300000000     0.320600000000     0.628100000000     0.100822   
O1       O      0.753400000000     0.298660000000     0.395860000000    -0.840336   
O4       O      0.679100000000     0.280800000000     0.413000000000    -0.081562   
O6       O      0.681900000000     0.294900000000     0.409000000000    -0.741092   
C5       C      0.679400000000     0.277300000000     0.378100000000     0.100835   
O1       O      0.104140000000     0.701340000000     0.746600000000    -0.840334   
O4       O      0.087000000000     0.719200000000     0.820900000000    -0.0817799  
O6       O      0.091000000000     0.705100000000     0.818100000000    -0.740863   
C5       C      0.121900000000     0.722700000000     0.820600000000     0.100812   
O1       O      0.298660000000     0.854140000000     0.496600000000    -0.840329   
O4       O      0.280800000000     0.837000000000     0.570900000000    -0.0815653  
O6       O      0.294900000000     0.841000000000     0.568100000000    -0.741066   
C5       C      0.277300000000     0.871900000000     0.570600000000     0.100781   
O1       O      0.145860000000     0.048660000000     0.246600000000    -0.840281   
O4       O      0.163000000000     0.030800000000     0.320900000000    -0.0817863  
O6       O      0.159000000000     0.044900000000     0.318100000000    -0.740859   
C5       C      0.128100000000     0.027300000000     0.320600000000     0.100959   
O1       O      0.951340000000     0.895860000000     0.996600000000    -0.840524   
O4       O      0.969200000000     0.913000000000     0.070900000000    -0.0797442  
O6       O      0.955100000000     0.909000000000     0.068100000000    -0.742843   
C5       C      0.972700000000     0.878100000000     0.070600000000     0.100755   
O1       O      0.104140000000     0.048660000000     0.003400000000    -0.840072   
O4       O      0.087000000000     0.030800000000     0.929100000000    -0.0823193  
O6       O      0.091000000000     0.044900000000     0.931900000000    -0.740291   
C5       C      0.121900000000     0.027300000000     0.929400000000     0.100795   
O1       O      0.951340000000     0.854140000000     0.753400000000    -0.840343   
O4       O      0.969200000000     0.837000000000     0.679100000000    -0.0803399  
O6       O      0.955100000000     0.841000000000     0.681900000000    -0.742302   
C5       C      0.972700000000     0.871900000000     0.679400000000     0.100582   
O1       O      0.145860000000     0.701340000000     0.503400000000    -0.840333   
O4       O      0.163000000000     0.719200000000     0.429100000000    -0.0815573  
O6       O      0.159000000000     0.705100000000     0.431900000000    -0.741096   
C5       C      0.128100000000     0.722700000000     0.429400000000     0.100853   
O1       O      0.298660000000     0.895860000000     0.253400000000    -0.840285   
O4       O      0.280800000000     0.913000000000     0.179100000000    -0.0811778  
O6       O      0.294900000000     0.909000000000     0.181900000000    -0.741409   
C5       C      0.277300000000     0.878100000000     0.179400000000     0.100845   
O1       O      0.246600000000     0.104140000000     0.201340000000    -0.840337   
O4       O      0.320900000000     0.087000000000     0.219200000000    -0.0817054  
O6       O      0.318100000000     0.091000000000     0.205100000000    -0.740936   
C5       C      0.320600000000     0.121900000000     0.222700000000     0.100852   
O1       O      0.746600000000     0.145860000000     0.548660000000    -0.840329   
O4       O      0.820900000000     0.163000000000     0.530800000000    -0.081611   
O6       O      0.818100000000     0.159000000000     0.544900000000    -0.741039   
C5       C      0.820600000000     0.128100000000     0.527300000000     0.100822   
O1       O      0.854140000000     0.496600000000     0.298660000000    -0.840329   
O4       O      0.837000000000     0.570900000000     0.280800000000    -0.0815653  
O6       O      0.841000000000     0.568100000000     0.294900000000    -0.741066   
C5       C      0.871900000000     0.570600000000     0.277300000000     0.100781   
O1       O      0.503400000000     0.604140000000     0.048660000000    -0.840283   
O4       O      0.429100000000     0.587000000000     0.030800000000    -0.0817925  
O6       O      0.431900000000     0.591000000000     0.044900000000    -0.74085    
C5       C      0.429400000000     0.621900000000     0.027300000000     0.100928   
O1       O      0.895860000000     0.253400000000     0.298660000000    -0.840285   
O4       O      0.913000000000     0.179100000000     0.280800000000    -0.0811778  
O6       O      0.909000000000     0.181900000000     0.294900000000    -0.741409   
C5       C      0.878100000000     0.179400000000     0.277300000000     0.100845   
O1       O      0.503400000000     0.645860000000     0.201340000000    -0.840339   
O4       O      0.429100000000     0.663000000000     0.219200000000    -0.0815493  
O6       O      0.431900000000     0.659000000000     0.205100000000    -0.741101   
C5       C      0.429400000000     0.628100000000     0.222700000000     0.100831   
O1       O      0.854140000000     0.753400000000     0.951340000000    -0.840343   
O4       O      0.837000000000     0.679100000000     0.969200000000    -0.0803399  
O6       O      0.841000000000     0.681900000000     0.955100000000    -0.742302   
C5       C      0.871900000000     0.679400000000     0.972700000000     0.100582   
O1       O      0.395860000000     0.996600000000     0.451340000000    -0.840567   
O4       O      0.413000000000     0.070900000000     0.469200000000    -0.0813254  
O6       O      0.409000000000     0.068100000000     0.455100000000    -0.741321   
C5       C      0.378100000000     0.070600000000     0.472700000000     0.100965   


