data_Al-Fum

_audit_creation_method RASPA-1.0
_audit_creation_date 2025-7-10
_audit_author_name ''

_citation_id                 1
_citation_year               10.1002/anie.201410459

_cell_length_a    27.3676
_cell_length_b    24.1754
_cell_length_c    42.621
_cell_angle_alpha 90
_cell_angle_beta  122.547
_cell_angle_gamma 90
_cell_volume      23770.4

_symmetry_cell_setting          monoclinic
_symmetry_space_group_name_Hall 'P 1'
_symmetry_space_group_name_H-M  'P 1'
_symmetry_Int_Tables_number     1

_symmetry_equiv_pos_as_xyz 'x,y,z'

loop_
_atom_site_label
_atom_site_type_symbol
_atom_site_fract_x
_atom_site_fract_y
_atom_site_fract_z
_atom_site_charge
Al1      Al     0.125000000000     0.250000000000     0.000000000000     5.78501    
Al2      Al     0.000000000000     0.250000000000     0.000000000000     5.05971    
O1       O      0.045030000000     0.258655000000     0.313383333333    -2.20222    
O2       O      0.061762500000     0.200075000000     0.038636666667    -1.14311    
O3       O      0.134610000000     0.184385000000     0.028126666667    -1.2927     
O4       O      0.112650000000     0.046650000000     0.126556666667    -1.52332    
O5       O      0.195690000000     0.056670000000     0.133140000000    -1.37538    
C1       C      0.107442500000     0.173495000000     0.044606666667     0.773755   
C2       C      0.138610000000     0.132480000000     0.074010000000    -0.128926   
C3       C      0.113945000000     0.113960000000     0.091270000000    -0.359734   
C4       C      0.144672500000     0.070495000000     0.120133333333     1.23844    
H2       H      0.182420000000     0.116085000000     0.081020000000     0.0385598  
H3       H      0.069430000000     0.128935000000     0.083873333333     0.0947429  
H1       H      0.019262500000     0.237210000000     0.289780000000     0.336936   
Al1      Al     0.125000000000     0.000000000000     0.166666666667     5.85379    
Al2      Al     0.000000000000     0.000000000000     0.166666666667     5.12113    
O1       O      0.204970000000     0.008655000000     0.186616666667    -2.21727    
O2       O      0.188237500000     0.450075000000     0.128030000000    -1.17089    
O3       O      0.115390000000     0.434385000000     0.138540000000    -1.31118    
O4       O      0.137350000000     0.296650000000     0.040110000000    -1.50424    
O5       O      0.054310000000     0.306670000000     0.033526666667    -1.3492     
C1       C      0.142557500000     0.423495000000     0.122060000000     0.792009   
C2       C      0.111390000000     0.382480000000     0.092656666667    -0.137936   
C3       C      0.136055000000     0.363960000000     0.075396666667    -0.350204   
C4       C      0.105327500000     0.320495000000     0.046533333333     1.21669    
H2       H      0.067580000000     0.366085000000     0.085646666667     0.0369207  
H3       H      0.180570000000     0.378935000000     0.082793333333     0.0965795  
H1       H      0.230737500000     0.487210000000     0.210220000000     0.344708   
O1       O      0.204970000000     0.241345000000     0.019950000000    -2.19538    
O2       O      0.188237500000     0.299925000000     0.294696666667    -1.17028    
O3       O      0.115390000000     0.315615000000     0.305206666667    -1.3109     
O4       O      0.137350000000     0.453350000000     0.206776666667    -1.52165    
O5       O      0.054310000000     0.443330000000     0.200193333333    -1.36362    
C1       C      0.142557500000     0.326505000000     0.288726666667     0.791273   
C2       C      0.111390000000     0.367520000000     0.259323333333    -0.135195   
C3       C      0.136055000000     0.386040000000     0.242063333333    -0.354576   
C4       C      0.105327500000     0.429505000000     0.213200000000     1.23183    
H2       H      0.067580000000     0.383915000000     0.252313333333     0.0363623  
H3       H      0.180570000000     0.371065000000     0.249460000000     0.0982147  
H1       H      0.230737500000     0.262790000000     0.043553333333     0.342107   
O1       O      0.045030000000     0.491345000000     0.146716666667    -2.20236    
O2       O      0.061762500000     0.049925000000     0.205303333333    -1.15292    
O3       O      0.134610000000     0.065615000000     0.194793333333    -1.30226    
O4       O      0.112650000000     0.203350000000     0.293223333333    -1.52739    
O5       O      0.195690000000     0.193330000000     0.299806666667    -1.37946    
C1       C      0.107442500000     0.076505000000     0.211273333333     0.780857   
C2       C      0.138610000000     0.117520000000     0.240676666667    -0.130258   
C3       C      0.113945000000     0.136040000000     0.257936666667    -0.359492   
C4       C      0.144672500000     0.179505000000     0.286800000000     1.24182    
H2       H      0.182420000000     0.133915000000     0.247686666667     0.0394445  
H3       H      0.069430000000     0.121065000000     0.250540000000     0.094934   
H1       H      0.019262500000     0.012790000000     0.123113333333     0.332715   
Al1      Al     0.125000000000     0.250000000000     0.333333333333     5.87861    
Al2      Al     0.000000000000     0.250000000000     0.333333333333     5.14286    
O1       O      0.045030000000     0.258655000000     0.646716666667    -2.20214    
O2       O      0.061762500000     0.200075000000     0.371970000000    -1.15599    
O3       O      0.134610000000     0.184385000000     0.361460000000    -1.30654    
O4       O      0.112650000000     0.046650000000     0.459890000000    -1.5228     
O5       O      0.195690000000     0.056670000000     0.466473333333    -1.37501    
C1       C      0.107442500000     0.173495000000     0.377940000000     0.783549   
C2       C      0.138610000000     0.132480000000     0.407343333333    -0.131736   
C3       C      0.113945000000     0.113960000000     0.424603333333    -0.357868   
C4       C      0.144672500000     0.070495000000     0.453466666667     1.23785    
H2       H      0.182420000000     0.116085000000     0.414353333333     0.0398024  
H3       H      0.069430000000     0.128935000000     0.417206666667     0.0945481  
H1       H      0.019262500000     0.237210000000     0.623113333333     0.336815   
Al1      Al     0.125000000000     0.000000000000     0.500000000000     5.85341    
Al2      Al     0.000000000000     0.000000000000     0.500000000000     5.11964    
O1       O      0.204970000000     0.008655000000     0.519950000000    -2.2172     
O2       O      0.188237500000     0.450075000000     0.461363333333    -1.17031    
O3       O      0.115390000000     0.434385000000     0.471873333333    -1.31091    
O4       O      0.137350000000     0.296650000000     0.373443333333    -1.52165    
O5       O      0.054310000000     0.306670000000     0.366860000000    -1.36354    
C1       C      0.142557500000     0.423495000000     0.455393333333     0.791209   
C2       C      0.111390000000     0.382480000000     0.425990000000    -0.135266   
C3       C      0.136055000000     0.363960000000     0.408730000000    -0.354625   
C4       C      0.105327500000     0.320495000000     0.379866666667     1.23171    
H2       H      0.067580000000     0.366085000000     0.418980000000     0.0362931  
H3       H      0.180570000000     0.378935000000     0.416126666667     0.0981444  
H1       H      0.230737500000     0.487210000000     0.543553333333     0.344632   
O1       O      0.204970000000     0.241345000000     0.353283333333    -2.22234    
O2       O      0.188237500000     0.299925000000     0.628030000000    -1.1703     
O3       O      0.115390000000     0.315615000000     0.638540000000    -1.31092    
O4       O      0.137350000000     0.453350000000     0.540110000000    -1.52164    
O5       O      0.054310000000     0.443330000000     0.533526666667    -1.3635     
C1       C      0.142557500000     0.326505000000     0.622060000000     0.791177   
C2       C      0.111390000000     0.367520000000     0.592656666667    -0.1353     
C3       C      0.136055000000     0.386040000000     0.575396666667    -0.354649   
C4       C      0.105327500000     0.429505000000     0.546533333333     1.23162    
H2       H      0.067580000000     0.383915000000     0.585646666667     0.0362536  
H3       H      0.180570000000     0.371065000000     0.582793333333     0.0981135  
H1       H      0.230737500000     0.262790000000     0.376886666667     0.344698   
O1       O      0.045030000000     0.491345000000     0.480050000000    -2.20211    
O2       O      0.061762500000     0.049925000000     0.538636666667    -1.15282    
O3       O      0.134610000000     0.065615000000     0.528126666667    -1.3023     
O4       O      0.112650000000     0.203350000000     0.626556666667    -1.52741    
O5       O      0.195690000000     0.193330000000     0.633140000000    -1.37946    
C1       C      0.107442500000     0.076505000000     0.544606666667     0.780683   
C2       C      0.138610000000     0.117520000000     0.574010000000    -0.130338   
C3       C      0.113945000000     0.136040000000     0.591270000000    -0.359592   
C4       C      0.144672500000     0.179505000000     0.620133333333     1.24172    
H2       H      0.182420000000     0.133915000000     0.581020000000     0.0393453  
H3       H      0.069430000000     0.121065000000     0.583873333333     0.094819   
H1       H      0.019262500000     0.012790000000     0.456446666667     0.333019   
Al1      Al     0.125000000000     0.250000000000     0.666666666667     5.87821    
Al2      Al     0.000000000000     0.250000000000     0.666666666667     5.14251    
O1       O      0.045030000000     0.258655000000     0.980050000000    -2.16204    
O2       O      0.061762500000     0.200075000000     0.705303333333    -1.15597    
O3       O      0.134610000000     0.184385000000     0.694793333333    -1.30653    
O4       O      0.112650000000     0.046650000000     0.793223333333    -1.52301    
O5       O      0.195690000000     0.056670000000     0.799806666667    -1.37518    
C1       C      0.107442500000     0.173495000000     0.711273333333     0.783454   
C2       C      0.138610000000     0.132480000000     0.740676666667    -0.131742   
C3       C      0.113945000000     0.113960000000     0.757936666667    -0.357968   
C4       C      0.144672500000     0.070495000000     0.786800000000     1.23798    
H2       H      0.182420000000     0.116085000000     0.747686666667     0.0397376  
H3       H      0.069430000000     0.128935000000     0.750540000000     0.0945287  
H1       H      0.019262500000     0.237210000000     0.956446666667     0.333433   
Al1      Al     0.125000000000     0.000000000000     0.833333333333     5.85414    
Al2      Al     0.000000000000     0.000000000000     0.833333333333     5.12141    
O1       O      0.204970000000     0.008655000000     0.853283333333    -2.21734    
O2       O      0.188237500000     0.450075000000     0.794696666667    -1.17049    
O3       O      0.115390000000     0.434385000000     0.805206666667    -1.31107    
O4       O      0.137350000000     0.296650000000     0.706776666667    -1.52161    
O5       O      0.054310000000     0.306670000000     0.700193333333    -1.36352    
C1       C      0.142557500000     0.423495000000     0.788726666667     0.791282   
C2       C      0.111390000000     0.382480000000     0.759323333333    -0.135352   
C3       C      0.136055000000     0.363960000000     0.742063333333    -0.354636   
C4       C      0.105327500000     0.320495000000     0.713200000000     1.2316     
H2       H      0.067580000000     0.366085000000     0.752313333333     0.0362744  
H3       H      0.180570000000     0.378935000000     0.749460000000     0.0980847  
H1       H      0.230737500000     0.487210000000     0.876886666667     0.34544    
O1       O      0.204970000000     0.241345000000     0.686616666667    -2.22224    
O2       O      0.188237500000     0.299925000000     0.961363333333    -1.15019    
O3       O      0.115390000000     0.315615000000     0.971873333333    -1.28765    
O4       O      0.137350000000     0.453350000000     0.873443333333    -1.52139    
O5       O      0.054310000000     0.443330000000     0.866860000000    -1.36366    
C1       C      0.142557500000     0.326505000000     0.955393333333     0.781778   
C2       C      0.111390000000     0.367520000000     0.925990000000    -0.13046    
C3       C      0.136055000000     0.386040000000     0.908730000000    -0.355865   
C4       C      0.105327500000     0.429505000000     0.879866666667     1.23274    
H2       H      0.067580000000     0.383915000000     0.918980000000     0.0362014  
H3       H      0.180570000000     0.371065000000     0.916126666667     0.0996334  
H1       H      0.230737500000     0.262790000000     0.710220000000     0.344654   
O1       O      0.045030000000     0.491345000000     0.813383333333    -2.2026     
O2       O      0.061762500000     0.049925000000     0.871970000000    -1.15279    
O3       O      0.134610000000     0.065615000000     0.861460000000    -1.30233    
O4       O      0.112650000000     0.203350000000     0.959890000000    -1.50227    
O5       O      0.195690000000     0.193330000000     0.966473333333    -1.35525    
C1       C      0.107442500000     0.076505000000     0.877940000000     0.782169   
C2       C      0.138610000000     0.117520000000     0.907343333333    -0.132733   
C3       C      0.113945000000     0.136040000000     0.924603333333    -0.35224    
C4       C      0.144672500000     0.179505000000     0.953466666667     1.2261     
H2       H      0.182420000000     0.133915000000     0.914353333333     0.0414086  
H3       H      0.069430000000     0.121065000000     0.917206666667     0.0945092  
H1       H      0.019262500000     0.012790000000     0.789780000000     0.333023   
Al1      Al     0.125000000000     0.750000000000     0.000000000000     5.78508    
Al2      Al     0.000000000000     0.750000000000     0.000000000000     5.0599     
O1       O      0.045030000000     0.758655000000     0.313383333333    -2.20221    
O2       O      0.061762500000     0.700075000000     0.038636666667    -1.14308    
O3       O      0.134610000000     0.684385000000     0.028126666667    -1.2926     
O4       O      0.112650000000     0.546650000000     0.126556666667    -1.52786    
O5       O      0.195690000000     0.556670000000     0.133140000000    -1.37971    
C1       C      0.107442500000     0.673495000000     0.044606666667     0.7736     
C2       C      0.138610000000     0.632480000000     0.074010000000    -0.128225   
C3       C      0.113945000000     0.613960000000     0.091270000000    -0.360927   
C4       C      0.144672500000     0.570495000000     0.120133333333     1.24224    
H2       H      0.182420000000     0.616085000000     0.081020000000     0.0384206  
H3       H      0.069430000000     0.628935000000     0.083873333333     0.095056   
H1       H      0.019262500000     0.737210000000     0.289780000000     0.336936   
Al1      Al     0.125000000000     0.500000000000     0.166666666667     5.87867    
Al2      Al     0.000000000000     0.500000000000     0.166666666667     5.14386    
O1       O      0.204970000000     0.508655000000     0.186616666667    -2.22232    
O2       O      0.188237500000     0.950075000000     0.128030000000    -1.16512    
O3       O      0.115390000000     0.934385000000     0.138540000000    -1.30544    
O4       O      0.137350000000     0.796650000000     0.040110000000    -1.50427    
O5       O      0.054310000000     0.806670000000     0.033526666667    -1.34919    
C1       C      0.142557500000     0.923495000000     0.122060000000     0.789477   
C2       C      0.111390000000     0.882480000000     0.092656666667    -0.13663    
C3       C      0.136055000000     0.863960000000     0.075396666667    -0.35056    
C4       C      0.105327500000     0.820495000000     0.046533333333     1.217      
H2       H      0.067580000000     0.866085000000     0.085646666667     0.0368119  
H3       H      0.180570000000     0.878935000000     0.082793333333     0.0970157  
H1       H      0.230737500000     0.987210000000     0.210220000000     0.346939   
O1       O      0.204970000000     0.741345000000     0.019950000000    -2.19542    
O2       O      0.188237500000     0.799925000000     0.294696666667    -1.17033    
O3       O      0.115390000000     0.815615000000     0.305206666667    -1.31082    
O4       O      0.137350000000     0.953350000000     0.206776666667    -1.51486    
O5       O      0.054310000000     0.943330000000     0.200193333333    -1.35767    
C1       C      0.142557500000     0.826505000000     0.288726666667     0.791682   
C2       C      0.111390000000     0.867520000000     0.259323333333    -0.13586    
C3       C      0.136055000000     0.886040000000     0.242063333333    -0.352656   
C4       C      0.105327500000     0.929505000000     0.213200000000     1.22742    
H2       H      0.067580000000     0.883915000000     0.252313333333     0.0369127  
H3       H      0.180570000000     0.871065000000     0.249460000000     0.0979915  
H1       H      0.230737500000     0.762790000000     0.043553333333     0.342125   
O1       O      0.045030000000     0.991345000000     0.146716666667    -2.18949    
O2       O      0.061762500000     0.549925000000     0.205303333333    -1.15597    
O3       O      0.134610000000     0.565615000000     0.194793333333    -1.30635    
O4       O      0.112650000000     0.703350000000     0.293223333333    -1.52737    
O5       O      0.195690000000     0.693330000000     0.299806666667    -1.37939    
C1       C      0.107442500000     0.576505000000     0.211273333333     0.783485   
C2       C      0.138610000000     0.617520000000     0.240676666667    -0.130966   
C3       C      0.113945000000     0.636040000000     0.257936666667    -0.359012   
C4       C      0.144672500000     0.679505000000     0.286800000000     1.24174    
H2       H      0.182420000000     0.633915000000     0.247686666667     0.0397268  
H3       H      0.069430000000     0.621065000000     0.250540000000     0.0949461  
H1       H      0.019262500000     0.512790000000     0.123113333333     0.336529   
Al1      Al     0.125000000000     0.750000000000     0.333333333333     5.87869    
Al2      Al     0.000000000000     0.750000000000     0.333333333333     5.14305    
O1       O      0.045030000000     0.758655000000     0.646716666667    -2.20213    
O2       O      0.061762500000     0.700075000000     0.371970000000    -1.15596    
O3       O      0.134610000000     0.684385000000     0.361460000000    -1.30644    
O4       O      0.112650000000     0.546650000000     0.459890000000    -1.52735    
O5       O      0.195690000000     0.556670000000     0.466473333333    -1.37935    
C1       C      0.107442500000     0.673495000000     0.377940000000     0.783394   
C2       C      0.138610000000     0.632480000000     0.407343333333    -0.131036   
C3       C      0.113945000000     0.613960000000     0.424603333333    -0.359061   
C4       C      0.144672500000     0.570495000000     0.453466666667     1.24165    
H2       H      0.182420000000     0.616085000000     0.414353333333     0.0396633  
H3       H      0.069430000000     0.628935000000     0.417206666667     0.0948613  
H1       H      0.019262500000     0.737210000000     0.623113333333     0.336816   
Al1      Al     0.125000000000     0.500000000000     0.500000000000     5.8783     
Al2      Al     0.000000000000     0.500000000000     0.500000000000     5.14237    
O1       O      0.204970000000     0.508655000000     0.519950000000    -2.22225    
O2       O      0.188237500000     0.950075000000     0.461363333333    -1.16454    
O3       O      0.115390000000     0.934385000000     0.471873333333    -1.30517    
O4       O      0.137350000000     0.796650000000     0.373443333333    -1.52168    
O5       O      0.054310000000     0.806670000000     0.366860000000    -1.36353    
C1       C      0.142557500000     0.923495000000     0.455393333333     0.788677   
C2       C      0.111390000000     0.882480000000     0.425990000000    -0.13396    
C3       C      0.136055000000     0.863960000000     0.408730000000    -0.354981   
C4       C      0.105327500000     0.820495000000     0.379866666667     1.23202    
H2       H      0.067580000000     0.866085000000     0.418980000000     0.0361842  
H3       H      0.180570000000     0.878935000000     0.416126666667     0.0985806  
H1       H      0.230737500000     0.987210000000     0.543553333333     0.346863   
O1       O      0.204970000000     0.741345000000     0.353283333333    -2.22237    
O2       O      0.188237500000     0.799925000000     0.628030000000    -1.17036    
O3       O      0.115390000000     0.815615000000     0.638540000000    -1.31084    
O4       O      0.137350000000     0.953350000000     0.540110000000    -1.51484    
O5       O      0.054310000000     0.943330000000     0.533526666667    -1.35755    
C1       C      0.142557500000     0.826505000000     0.622060000000     0.791585   
C2       C      0.111390000000     0.867520000000     0.592656666667    -0.135965   
C3       C      0.136055000000     0.886040000000     0.575396666667    -0.352729   
C4       C      0.105327500000     0.929505000000     0.546533333333     1.22721    
H2       H      0.067580000000     0.883915000000     0.585646666667     0.036804   
H3       H      0.180570000000     0.871065000000     0.582793333333     0.0978902  
H1       H      0.230737500000     0.762790000000     0.376886666667     0.344716   
O1       O      0.045030000000     0.991345000000     0.480050000000    -2.18924    
O2       O      0.061762500000     0.549925000000     0.538636666667    -1.15587    
O3       O      0.134610000000     0.565615000000     0.528126666667    -1.30639    
O4       O      0.112650000000     0.703350000000     0.626556666667    -1.52739    
O5       O      0.195690000000     0.693330000000     0.633140000000    -1.3794     
C1       C      0.107442500000     0.576505000000     0.544606666667     0.783312   
C2       C      0.138610000000     0.617520000000     0.574010000000    -0.131045   
C3       C      0.113945000000     0.636040000000     0.591270000000    -0.359112   
C4       C      0.144672500000     0.679505000000     0.620133333333     1.24163    
H2       H      0.182420000000     0.633915000000     0.581020000000     0.0396276  
H3       H      0.069430000000     0.621065000000     0.583873333333     0.0948311  
H1       H      0.019262500000     0.512790000000     0.456446666667     0.336833   
Al1      Al     0.125000000000     0.750000000000     0.666666666667     5.87828    
Al2      Al     0.000000000000     0.750000000000     0.666666666667     5.1427     
O1       O      0.045030000000     0.758655000000     0.980050000000    -2.16203    
O2       O      0.061762500000     0.700075000000     0.705303333333    -1.15593    
O3       O      0.134610000000     0.684385000000     0.694793333333    -1.30643    
O4       O      0.112650000000     0.546650000000     0.793223333333    -1.52755    
O5       O      0.195690000000     0.556670000000     0.799806666667    -1.37952    
C1       C      0.107442500000     0.673495000000     0.711273333333     0.783299   
C2       C      0.138610000000     0.632480000000     0.740676666667    -0.131042   
C3       C      0.113945000000     0.613960000000     0.757936666667    -0.359161   
C4       C      0.144672500000     0.570495000000     0.786800000000     1.24178    
H2       H      0.182420000000     0.616085000000     0.747686666667     0.0395985  
H3       H      0.069430000000     0.628935000000     0.750540000000     0.0948418  
H1       H      0.019262500000     0.737210000000     0.956446666667     0.333434   
Al1      Al     0.125000000000     0.500000000000     0.833333333333     5.87902    
Al2      Al     0.000000000000     0.500000000000     0.833333333333     5.14413    
O1       O      0.204970000000     0.508655000000     0.853283333333    -2.22239    
O2       O      0.188237500000     0.950075000000     0.794696666667    -1.16472    
O3       O      0.115390000000     0.934385000000     0.805206666667    -1.30533    
O4       O      0.137350000000     0.796650000000     0.706776666667    -1.52164    
O5       O      0.054310000000     0.806670000000     0.700193333333    -1.36351    
C1       C      0.142557500000     0.923495000000     0.788726666667     0.788749   
C2       C      0.111390000000     0.882480000000     0.759323333333    -0.134046   
C3       C      0.136055000000     0.863960000000     0.742063333333    -0.354992   
C4       C      0.105327500000     0.820495000000     0.713200000000     1.23191    
H2       H      0.067580000000     0.866085000000     0.752313333333     0.0361656  
H3       H      0.180570000000     0.878935000000     0.749460000000     0.0985209  
H1       H      0.230737500000     0.987210000000     0.876886666667     0.347671   
O1       O      0.204970000000     0.741345000000     0.686616666667    -2.22227    
O2       O      0.188237500000     0.799925000000     0.961363333333    -1.15024    
O3       O      0.115390000000     0.815615000000     0.971873333333    -1.28757    
O4       O      0.137350000000     0.953350000000     0.873443333333    -1.51459    
O5       O      0.054310000000     0.943330000000     0.866860000000    -1.35771    
C1       C      0.142557500000     0.826505000000     0.955393333333     0.782186   
C2       C      0.111390000000     0.867520000000     0.925990000000    -0.131125   
C3       C      0.136055000000     0.886040000000     0.908730000000    -0.353946   
C4       C      0.105327500000     0.929505000000     0.879866666667     1.22833    
H2       H      0.067580000000     0.883915000000     0.918980000000     0.0367515  
H3       H      0.180570000000     0.871065000000     0.916126666667     0.0994101  
H1       H      0.230737500000     0.762790000000     0.710220000000     0.344672   
O1       O      0.045030000000     0.991345000000     0.813383333333    -2.18973    
O2       O      0.061762500000     0.549925000000     0.871970000000    -1.15585    
O3       O      0.134610000000     0.565615000000     0.861460000000    -1.30642    
O4       O      0.112650000000     0.703350000000     0.959890000000    -1.50225    
O5       O      0.195690000000     0.693330000000     0.966473333333    -1.35518    
C1       C      0.107442500000     0.576505000000     0.877940000000     0.784798   
C2       C      0.138610000000     0.617520000000     0.907343333333    -0.13344    
C3       C      0.113945000000     0.636040000000     0.924603333333    -0.35176    
C4       C      0.144672500000     0.679505000000     0.953466666667     1.22602    
H2       H      0.182420000000     0.633915000000     0.914353333333     0.0416909  
H3       H      0.069430000000     0.621065000000     0.917206666667     0.0945213  
H1       H      0.019262500000     0.512790000000     0.789780000000     0.336836   
Al1      Al     0.375000000000     0.250000000000     0.000000000000     5.79873    
Al2      Al     0.250000000000     0.250000000000     0.000000000000     5.18799    
O1       O      0.295030000000     0.258655000000     0.313383333333    -2.22495    
O2       O      0.311762500000     0.200075000000     0.038636666667    -1.15705    
O3       O      0.384610000000     0.184385000000     0.028126666667    -1.29672    
O4       O      0.362650000000     0.046650000000     0.126556666667    -1.52364    
O5       O      0.445690000000     0.056670000000     0.133140000000    -1.37571    
C1       C      0.357442500000     0.173495000000     0.044606666667     0.781873   
C2       C      0.388610000000     0.132480000000     0.074010000000    -0.1304     
C3       C      0.363945000000     0.113960000000     0.091270000000    -0.357709   
C4       C      0.394672500000     0.070495000000     0.120133333333     1.2395     
H2       H      0.432420000000     0.116085000000     0.081020000000     0.0392239  
H3       H      0.319430000000     0.128935000000     0.083873333333     0.09877    
H1       H      0.269262500000     0.237210000000     0.289780000000     0.344985   
Al1      Al     0.375000000000     0.000000000000     0.166666666667     5.8684     
Al2      Al     0.250000000000     0.000000000000     0.166666666667     5.25151    
O1       O      0.454970000000     0.008655000000     0.186616666667    -2.2202     
O2       O      0.438237500000     0.450075000000     0.128030000000    -1.17099    
O3       O      0.365390000000     0.434385000000     0.138540000000    -1.31093    
O4       O      0.387350000000     0.296650000000     0.040110000000    -1.50991    
O5       O      0.304310000000     0.306670000000     0.033526666667    -1.36462    
C1       C      0.392557500000     0.423495000000     0.122060000000     0.792593   
C2       C      0.361390000000     0.382480000000     0.092656666667    -0.135354   
C3       C      0.386055000000     0.363960000000     0.075396666667    -0.352373   
C4       C      0.355327500000     0.320495000000     0.046533333333     1.22729    
H2       H      0.317580000000     0.366085000000     0.085646666667     0.0409498  
H3       H      0.430570000000     0.378935000000     0.082793333333     0.097391   
H1       H      0.480737500000     0.487210000000     0.210220000000     0.345157   
O1       O      0.454970000000     0.241345000000     0.019950000000    -2.19813    
O2       O      0.438237500000     0.299925000000     0.294696666667    -1.17038    
O3       O      0.365390000000     0.315615000000     0.305206666667    -1.31064    
O4       O      0.387350000000     0.453350000000     0.206776666667    -1.52752    
O5       O      0.304310000000     0.443330000000     0.200193333333    -1.37934    
C1       C      0.392557500000     0.326505000000     0.288726666667     0.791853   
C2       C      0.361390000000     0.367520000000     0.259323333333    -0.132564   
C3       C      0.386055000000     0.386040000000     0.242063333333    -0.356808   
C4       C      0.355327500000     0.429505000000     0.213200000000     1.24267    
H2       H      0.317580000000     0.383915000000     0.252313333333     0.0404207  
H3       H      0.430570000000     0.371065000000     0.249460000000     0.0990491  
H1       H      0.480737500000     0.262790000000     0.043553333333     0.342532   
O1       O      0.295030000000     0.491345000000     0.146716666667    -2.22496    
O2       O      0.311762500000     0.049925000000     0.205303333333    -1.16712    
O3       O      0.384610000000     0.065615000000     0.194793333333    -1.30643    
O4       O      0.362650000000     0.203350000000     0.293223333333    -1.5277     
O5       O      0.445690000000     0.193330000000     0.299806666667    -1.3798     
C1       C      0.357442500000     0.076505000000     0.211273333333     0.789143   
C2       C      0.388610000000     0.117520000000     0.240676666667    -0.131775   
C3       C      0.363945000000     0.136040000000     0.257936666667    -0.357431   
C4       C      0.394672500000     0.179505000000     0.286800000000     1.24289    
H2       H      0.432420000000     0.133915000000     0.247686666667     0.0401273  
H3       H      0.319430000000     0.121065000000     0.250540000000     0.0989941  
H1       H      0.269262500000     0.012790000000     0.123113333333     0.340701   
Al1      Al     0.375000000000     0.250000000000     0.333333333333     5.89332    
Al2      Al     0.250000000000     0.250000000000     0.333333333333     5.27404    
O1       O      0.295030000000     0.258655000000     0.646716666667    -2.22486    
O2       O      0.311762500000     0.200075000000     0.371970000000    -1.17029    
O3       O      0.384610000000     0.184385000000     0.361460000000    -1.31075    
O4       O      0.362650000000     0.046650000000     0.459890000000    -1.52311    
O5       O      0.445690000000     0.056670000000     0.466473333333    -1.37535    
C1       C      0.357442500000     0.173495000000     0.377940000000     0.79189    
C2       C      0.388610000000     0.132480000000     0.407343333333    -0.133264   
C3       C      0.363945000000     0.113960000000     0.424603333333    -0.355792   
C4       C      0.394672500000     0.070495000000     0.453466666667     1.23891    
H2       H      0.432420000000     0.116085000000     0.414353333333     0.0404902  
H3       H      0.319430000000     0.128935000000     0.417206666667     0.0986282  
H1       H      0.269262500000     0.237210000000     0.623113333333     0.34489    
Al1      Al     0.375000000000     0.000000000000     0.500000000000     5.86814    
Al2      Al     0.250000000000     0.000000000000     0.500000000000     5.25105    
O1       O      0.454970000000     0.008655000000     0.519950000000    -2.22015    
O2       O      0.438237500000     0.450075000000     0.461363333333    -1.17041    
O3       O      0.365390000000     0.434385000000     0.471873333333    -1.31064    
O4       O      0.387350000000     0.296650000000     0.373443333333    -1.52756    
O5       O      0.304310000000     0.306670000000     0.366860000000    -1.37936    
C1       C      0.392557500000     0.423495000000     0.455393333333     0.79179    
C2       C      0.361390000000     0.382480000000     0.425990000000    -0.132618   
C3       C      0.386055000000     0.363960000000     0.408730000000    -0.356873   
C4       C      0.355327500000     0.320495000000     0.379866666667     1.24262    
H2       H      0.317580000000     0.366085000000     0.418980000000     0.0403703  
H3       H      0.430570000000     0.378935000000     0.416126666667     0.0989846  
H1       H      0.480737500000     0.487210000000     0.543553333333     0.345085   
O1       O      0.454970000000     0.241345000000     0.353283333333    -2.22529    
O2       O      0.438237500000     0.299925000000     0.628030000000    -1.1704     
O3       O      0.365390000000     0.315615000000     0.638540000000    -1.31066    
O4       O      0.387350000000     0.453350000000     0.540110000000    -1.52755    
O5       O      0.304310000000     0.443330000000     0.533526666667    -1.37935    
C1       C      0.392557500000     0.326505000000     0.622060000000     0.791756   
C2       C      0.361390000000     0.367520000000     0.592656666667    -0.132646   
C3       C      0.386055000000     0.386040000000     0.575396666667    -0.356902   
C4       C      0.355327500000     0.429505000000     0.546533333333     1.24256    
H2       H      0.317580000000     0.383915000000     0.585646666667     0.040333   
H3       H      0.430570000000     0.371065000000     0.582793333333     0.0989561  
H1       H      0.480737500000     0.262790000000     0.376886666667     0.34515    
O1       O      0.295030000000     0.491345000000     0.480050000000    -2.22488    
O2       O      0.311762500000     0.049925000000     0.538636666667    -1.16714    
O3       O      0.384610000000     0.065615000000     0.528126666667    -1.30651    
O4       O      0.362650000000     0.203350000000     0.626556666667    -1.52771    
O5       O      0.445690000000     0.193330000000     0.633140000000    -1.3798     
C1       C      0.357442500000     0.076505000000     0.544606666667     0.789041   
C2       C      0.388610000000     0.117520000000     0.574010000000    -0.131869   
C3       C      0.363945000000     0.136040000000     0.591270000000    -0.35751    
C4       C      0.394672500000     0.179505000000     0.620133333333     1.24278    
H2       H      0.432420000000     0.133915000000     0.581020000000     0.0400354  
H3       H      0.319430000000     0.121065000000     0.583873333333     0.0989023  
H1       H      0.269262500000     0.012790000000     0.456446666667     0.341095   
Al1      Al     0.375000000000     0.250000000000     0.666666666667     5.89293    
Al2      Al     0.250000000000     0.250000000000     0.666666666667     5.27365    
O1       O      0.295030000000     0.258655000000     0.980050000000    -2.18407    
O2       O      0.311762500000     0.200075000000     0.705303333333    -1.17027    
O3       O      0.384610000000     0.184385000000     0.694793333333    -1.31073    
O4       O      0.362650000000     0.046650000000     0.793223333333    -1.5233     
O5       O      0.445690000000     0.056670000000     0.799806666667    -1.37551    
C1       C      0.357442500000     0.173495000000     0.711273333333     0.7918     
C2       C      0.388610000000     0.132480000000     0.740676666667    -0.133272   
C3       C      0.363945000000     0.113960000000     0.757936666667    -0.355887   
C4       C      0.394672500000     0.070495000000     0.786800000000     1.23903    
H2       H      0.432420000000     0.116085000000     0.747686666667     0.0404274  
H3       H      0.319430000000     0.128935000000     0.750540000000     0.0985991  
H1       H      0.269262500000     0.237210000000     0.956446666667     0.341373   
Al1      Al     0.375000000000     0.000000000000     0.833333333333     5.86876    
Al2      Al     0.250000000000     0.000000000000     0.833333333333     5.25171    
O1       O      0.454970000000     0.008655000000     0.853283333333    -2.22028    
O2       O      0.438237500000     0.450075000000     0.794696666667    -1.17058    
O3       O      0.365390000000     0.434385000000     0.805206666667    -1.3108     
O4       O      0.387350000000     0.296650000000     0.706776666667    -1.52752    
O5       O      0.304310000000     0.306670000000     0.700193333333    -1.37934    
C1       C      0.392557500000     0.423495000000     0.788726666667     0.791857   
C2       C      0.361390000000     0.382480000000     0.759323333333    -0.132701   
C3       C      0.386055000000     0.363960000000     0.742063333333    -0.356885   
C4       C      0.355327500000     0.320495000000     0.713200000000     1.24252    
H2       H      0.317580000000     0.366085000000     0.752313333333     0.0403401  
H3       H      0.430570000000     0.378935000000     0.749460000000     0.0989266  
H1       H      0.480737500000     0.487210000000     0.876886666667     0.345884   
O1       O      0.454970000000     0.241345000000     0.686616666667    -2.22519    
O2       O      0.438237500000     0.299925000000     0.961363333333    -1.1502     
O3       O      0.365390000000     0.315615000000     0.971873333333    -1.28723    
O4       O      0.387350000000     0.453350000000     0.873443333333    -1.52726    
O5       O      0.304310000000     0.443330000000     0.866860000000    -1.37939    
C1       C      0.392557500000     0.326505000000     0.955393333333     0.782283   
C2       C      0.361390000000     0.367520000000     0.925990000000    -0.127806   
C3       C      0.386055000000     0.386040000000     0.908730000000    -0.358112   
C4       C      0.355327500000     0.429505000000     0.879866666667     1.2436     
H2       H      0.317580000000     0.383915000000     0.918980000000     0.0402318  
H3       H      0.430570000000     0.371065000000     0.916126666667     0.10047    
H1       H      0.480737500000     0.262790000000     0.710220000000     0.345106   
O1       O      0.295030000000     0.491345000000     0.813383333333    -2.22518    
O2       O      0.311762500000     0.049925000000     0.871970000000    -1.16701    
O3       O      0.384610000000     0.065615000000     0.861460000000    -1.3065     
O4       O      0.362650000000     0.203350000000     0.959890000000    -1.50238    
O5       O      0.445690000000     0.193330000000     0.966473333333    -1.3555     
C1       C      0.357442500000     0.076505000000     0.877940000000     0.790469   
C2       C      0.388610000000     0.117520000000     0.907343333333    -0.134271   
C3       C      0.363945000000     0.136040000000     0.924603333333    -0.350139   
C4       C      0.394672500000     0.179505000000     0.953466666667     1.22705    
H2       H      0.432420000000     0.133915000000     0.914353333333     0.0420956  
H3       H      0.319430000000     0.121065000000     0.917206666667     0.0985448  
H1       H      0.269262500000     0.012790000000     0.789780000000     0.341058   
Al1      Al     0.375000000000     0.750000000000     0.000000000000     5.7988     
Al2      Al     0.250000000000     0.750000000000     0.000000000000     5.18818    
O1       O      0.295030000000     0.758655000000     0.313383333333    -2.22495    
O2       O      0.311762500000     0.700075000000     0.038636666667    -1.15702    
O3       O      0.384610000000     0.684385000000     0.028126666667    -1.29662    
O4       O      0.362650000000     0.546650000000     0.126556666667    -1.52818    
O5       O      0.445690000000     0.556670000000     0.133140000000    -1.38005    
C1       C      0.357442500000     0.673495000000     0.044606666667     0.781717   
C2       C      0.388610000000     0.632480000000     0.074010000000    -0.129699   
C3       C      0.363945000000     0.613960000000     0.091270000000    -0.358903   
C4       C      0.394672500000     0.570495000000     0.120133333333     1.2433     
H2       H      0.432420000000     0.616085000000     0.081020000000     0.0390848  
H3       H      0.319430000000     0.628935000000     0.083873333333     0.0990832  
H1       H      0.269262500000     0.737210000000     0.289780000000     0.344986   
Al1      Al     0.375000000000     0.500000000000     0.166666666667     5.89329    
Al2      Al     0.250000000000     0.500000000000     0.166666666667     5.27425    
O1       O      0.454970000000     0.508655000000     0.186616666667    -2.22525    
O2       O      0.438237500000     0.950075000000     0.128030000000    -1.16522    
O3       O      0.365390000000     0.934385000000     0.138540000000    -1.30519    
O4       O      0.387350000000     0.796650000000     0.040110000000    -1.50994    
O5       O      0.304310000000     0.806670000000     0.033526666667    -1.36461    
C1       C      0.392557500000     0.923495000000     0.122060000000     0.79006    
C2       C      0.361390000000     0.882480000000     0.092656666667    -0.134048   
C3       C      0.386055000000     0.863960000000     0.075396666667    -0.352729   
C4       C      0.355327500000     0.820495000000     0.046533333333     1.22761    
H2       H      0.317580000000     0.866085000000     0.085646666667     0.0408409  
H3       H      0.430570000000     0.878935000000     0.082793333333     0.0978272  
H1       H      0.480737500000     0.987210000000     0.210220000000     0.347388   
O1       O      0.454970000000     0.741345000000     0.019950000000    -2.19817    
O2       O      0.438237500000     0.799925000000     0.294696666667    -1.17043    
O3       O      0.365390000000     0.815615000000     0.305206666667    -1.31056    
O4       O      0.387350000000     0.953350000000     0.206776666667    -1.52072    
O5       O      0.304310000000     0.943330000000     0.200193333333    -1.37339    
C1       C      0.392557500000     0.826505000000     0.288726666667     0.792261   
C2       C      0.361390000000     0.867520000000     0.259323333333    -0.13323    
C3       C      0.386055000000     0.886040000000     0.242063333333    -0.354888   
C4       C      0.355327500000     0.929505000000     0.213200000000     1.23826    
H2       H      0.317580000000     0.883915000000     0.252313333333     0.040971   
H3       H      0.430570000000     0.871065000000     0.249460000000     0.0988257  
H1       H      0.480737500000     0.762790000000     0.043553333333     0.34255    
O1       O      0.295030000000     0.991345000000     0.146716666667    -2.21208    
O2       O      0.311762500000     0.549925000000     0.205303333333    -1.17018    
O3       O      0.384610000000     0.565615000000     0.194793333333    -1.31053    
O4       O      0.362650000000     0.703350000000     0.293223333333    -1.52768    
O5       O      0.445690000000     0.693330000000     0.299806666667    -1.37973    
C1       C      0.357442500000     0.576505000000     0.211273333333     0.791773   
C2       C      0.388610000000     0.617520000000     0.240676666667    -0.132483   
C3       C      0.363945000000     0.636040000000     0.257936666667    -0.35695    
C4       C      0.394672500000     0.679505000000     0.286800000000     1.2428     
H2       H      0.432420000000     0.633915000000     0.247686666667     0.0404097  
H3       H      0.319430000000     0.621065000000     0.250540000000     0.0990064  
H1       H      0.269262500000     0.512790000000     0.123113333333     0.344517   
Al1      Al     0.375000000000     0.750000000000     0.333333333333     5.8934     
Al2      Al     0.250000000000     0.750000000000     0.333333333333     5.27423    
O1       O      0.295030000000     0.758655000000     0.646716666667    -2.22486    
O2       O      0.311762500000     0.700075000000     0.371970000000    -1.17026    
O3       O      0.384610000000     0.684385000000     0.361460000000    -1.31065    
O4       O      0.362650000000     0.546650000000     0.459890000000    -1.52765    
O5       O      0.445690000000     0.556670000000     0.466473333333    -1.37968    
C1       C      0.357442500000     0.673495000000     0.377940000000     0.791735   
C2       C      0.388610000000     0.632480000000     0.407343333333    -0.132564   
C3       C      0.363945000000     0.613960000000     0.424603333333    -0.356985   
C4       C      0.394672500000     0.570495000000     0.453466666667     1.24271    
H2       H      0.432420000000     0.616085000000     0.414353333333     0.0403511  
H3       H      0.319430000000     0.628935000000     0.417206666667     0.0989415  
H1       H      0.269262500000     0.737210000000     0.623113333333     0.34489    
Al1      Al     0.375000000000     0.500000000000     0.500000000000     5.89304    
Al2      Al     0.250000000000     0.500000000000     0.500000000000     5.2738     
O1       O      0.454970000000     0.508655000000     0.519950000000    -2.22521    
O2       O      0.438237500000     0.950075000000     0.461363333333    -1.16463    
O3       O      0.365390000000     0.934385000000     0.471873333333    -1.3049     
O4       O      0.387350000000     0.796650000000     0.373443333333    -1.52759    
O5       O      0.304310000000     0.806670000000     0.366860000000    -1.37935    
C1       C      0.392557500000     0.923495000000     0.455393333333     0.789256   
C2       C      0.361390000000     0.882480000000     0.425990000000    -0.131312   
C3       C      0.386055000000     0.863960000000     0.408730000000    -0.357229   
C4       C      0.355327500000     0.820495000000     0.379866666667     1.24293    
H2       H      0.317580000000     0.866085000000     0.418980000000     0.0402613  
H3       H      0.430570000000     0.878935000000     0.416126666667     0.0994209  
H1       H      0.480737500000     0.987210000000     0.543553333333     0.347316   
O1       O      0.454970000000     0.741345000000     0.353283333333    -2.22532    
O2       O      0.438237500000     0.799925000000     0.628030000000    -1.17045    
O3       O      0.365390000000     0.815615000000     0.638540000000    -1.31058    
O4       O      0.387350000000     0.953350000000     0.540110000000    -1.52075    
O5       O      0.304310000000     0.943330000000     0.533526666667    -1.3734     
C1       C      0.392557500000     0.826505000000     0.622060000000     0.792164   
C2       C      0.361390000000     0.867520000000     0.592656666667    -0.133312   
C3       C      0.386055000000     0.886040000000     0.575396666667    -0.354981   
C4       C      0.355327500000     0.929505000000     0.546533333333     1.23815    
H2       H      0.317580000000     0.883915000000     0.585646666667     0.0408834  
H3       H      0.430570000000     0.871065000000     0.582793333333     0.0987326  
H1       H      0.480737500000     0.762790000000     0.376886666667     0.345168   
O1       O      0.295030000000     0.991345000000     0.480050000000    -2.212      
O2       O      0.311762500000     0.549925000000     0.538636666667    -1.1702     
O3       O      0.384610000000     0.565615000000     0.528126666667    -1.3106     
O4       O      0.362650000000     0.703350000000     0.626556666667    -1.52768    
O5       O      0.445690000000     0.693330000000     0.633140000000    -1.37973    
C1       C      0.357442500000     0.576505000000     0.544606666667     0.791672   
C2       C      0.388610000000     0.617520000000     0.574010000000    -0.132577   
C3       C      0.363945000000     0.636040000000     0.591270000000    -0.357029   
C4       C      0.394672500000     0.679505000000     0.620133333333     1.24269    
H2       H      0.432420000000     0.633915000000     0.581020000000     0.0403178  
H3       H      0.319430000000     0.621065000000     0.583873333333     0.0989146  
H1       H      0.269262500000     0.512790000000     0.456446666667     0.344912   
Al1      Al     0.375000000000     0.750000000000     0.666666666667     5.893      
Al2      Al     0.250000000000     0.750000000000     0.666666666667     5.27385    
O1       O      0.295030000000     0.758655000000     0.980050000000    -2.18407    
O2       O      0.311762500000     0.700075000000     0.705303333333    -1.17023    
O3       O      0.384610000000     0.684385000000     0.694793333333    -1.31063    
O4       O      0.362650000000     0.546650000000     0.793223333333    -1.52784    
O5       O      0.445690000000     0.556670000000     0.799806666667    -1.37985    
C1       C      0.357442500000     0.673495000000     0.711273333333     0.791645   
C2       C      0.388610000000     0.632480000000     0.740676666667    -0.132572   
C3       C      0.363945000000     0.613960000000     0.757936666667    -0.35708    
C4       C      0.394672500000     0.570495000000     0.786800000000     1.24283    
H2       H      0.432420000000     0.616085000000     0.747686666667     0.0402884  
H3       H      0.319430000000     0.628935000000     0.750540000000     0.0989124  
H1       H      0.269262500000     0.737210000000     0.956446666667     0.341374   
Al1      Al     0.375000000000     0.500000000000     0.833333333333     5.89366    
Al2      Al     0.250000000000     0.500000000000     0.833333333333     5.27446    
O1       O      0.454970000000     0.508655000000     0.853283333333    -2.22533    
O2       O      0.438237500000     0.950075000000     0.794696666667    -1.16481    
O3       O      0.365390000000     0.934385000000     0.805206666667    -1.30506    
O4       O      0.387350000000     0.796650000000     0.706776666667    -1.52755    
O5       O      0.304310000000     0.806670000000     0.700193333333    -1.37933    
C1       C      0.392557500000     0.923495000000     0.788726666667     0.789324   
C2       C      0.361390000000     0.882480000000     0.759323333333    -0.131395   
C3       C      0.386055000000     0.863960000000     0.742063333333    -0.357241   
C4       C      0.355327500000     0.820495000000     0.713200000000     1.24283    
H2       H      0.317580000000     0.866085000000     0.752313333333     0.0402311  
H3       H      0.430570000000     0.878935000000     0.749460000000     0.0993628  
H1       H      0.480737500000     0.987210000000     0.876886666667     0.348115   
O1       O      0.454970000000     0.741345000000     0.686616666667    -2.22523    
O2       O      0.438237500000     0.799925000000     0.961363333333    -1.15026    
O3       O      0.365390000000     0.815615000000     0.971873333333    -1.28715    
O4       O      0.387350000000     0.953350000000     0.873443333333    -1.52046    
O5       O      0.304310000000     0.943330000000     0.866860000000    -1.37344    
C1       C      0.392557500000     0.826505000000     0.955393333333     0.782691   
C2       C      0.361390000000     0.867520000000     0.925990000000    -0.128471   
C3       C      0.386055000000     0.886040000000     0.908730000000    -0.356192   
C4       C      0.355327500000     0.929505000000     0.879866666667     1.23918    
H2       H      0.317580000000     0.883915000000     0.918980000000     0.040782   
H3       H      0.430570000000     0.871065000000     0.916126666667     0.100246   
H1       H      0.480737500000     0.762790000000     0.710220000000     0.345124   
O1       O      0.295030000000     0.991345000000     0.813383333333    -2.2123     
O2       O      0.311762500000     0.549925000000     0.871970000000    -1.17007    
O3       O      0.384610000000     0.565615000000     0.861460000000    -1.3106     
O4       O      0.362650000000     0.703350000000     0.959890000000    -1.50236    
O5       O      0.445690000000     0.693330000000     0.966473333333    -1.35543    
C1       C      0.357442500000     0.576505000000     0.877940000000     0.793099   
C2       C      0.388610000000     0.617520000000     0.907343333333    -0.134979   
C3       C      0.363945000000     0.636040000000     0.924603333333    -0.349659   
C4       C      0.394672500000     0.679505000000     0.953466666667     1.22697    
H2       H      0.432420000000     0.633915000000     0.914353333333     0.042378   
H3       H      0.319430000000     0.621065000000     0.917206666667     0.0985572  
H1       H      0.269262500000     0.512790000000     0.789780000000     0.344874   
Al1      Al     0.625000000000     0.250000000000     0.000000000000     5.7988     
Al2      Al     0.500000000000     0.250000000000     0.000000000000     5.18921    
O1       O      0.545030000000     0.258655000000     0.313383333333    -2.2253     
O2       O      0.561762500000     0.200075000000     0.038636666667    -1.15724    
O3       O      0.634610000000     0.184385000000     0.028126666667    -1.29671    
O4       O      0.612650000000     0.046650000000     0.126556666667    -1.52362    
O5       O      0.695690000000     0.056670000000     0.133140000000    -1.37557    
C1       C      0.607442500000     0.173495000000     0.044606666667     0.78195    
C2       C      0.638610000000     0.132480000000     0.074010000000    -0.13041    
C3       C      0.613945000000     0.113960000000     0.091270000000    -0.35765    
C4       C      0.644672500000     0.070495000000     0.120133333333     1.23945    
H2       H      0.682420000000     0.116085000000     0.081020000000     0.0393859  
H3       H      0.569430000000     0.128935000000     0.083873333333     0.0987917  
H1       H      0.519262500000     0.237210000000     0.289780000000     0.345175   
Al1      Al     0.625000000000     0.000000000000     0.166666666667     5.86846    
Al2      Al     0.500000000000     0.000000000000     0.166666666667     5.25308    
O1       O      0.704970000000     0.008655000000     0.186616666667    -2.22014    
O2       O      0.688237500000     0.450075000000     0.128030000000    -1.17093    
O3       O      0.615390000000     0.434385000000     0.138540000000    -1.31093    
O4       O      0.637350000000     0.296650000000     0.040110000000    -1.50987    
O5       O      0.554310000000     0.306670000000     0.033526666667    -1.36489    
C1       C      0.642557500000     0.423495000000     0.122060000000     0.792591   
C2       C      0.611390000000     0.382480000000     0.092656666667    -0.135306   
C3       C      0.636055000000     0.363960000000     0.075396666667    -0.352399   
C4       C      0.605327500000     0.320495000000     0.046533333333     1.22739    
H2       H      0.567580000000     0.366085000000     0.085646666667     0.0409497  
H3       H      0.680570000000     0.378935000000     0.082793333333     0.0975323  
H1       H      0.730737500000     0.487210000000     0.210220000000     0.345498   
O1       O      0.704970000000     0.241345000000     0.019950000000    -2.19814    
O2       O      0.688237500000     0.299925000000     0.294696666667    -1.17031    
O3       O      0.615390000000     0.315615000000     0.305206666667    -1.31064    
O4       O      0.637350000000     0.453350000000     0.206776666667    -1.5275     
O5       O      0.554310000000     0.443330000000     0.200193333333    -1.37967    
C1       C      0.642557500000     0.326505000000     0.288726666667     0.79185    
C2       C      0.611390000000     0.367520000000     0.259323333333    -0.132507   
C3       C      0.636055000000     0.386040000000     0.242063333333    -0.356841   
C4       C      0.605327500000     0.429505000000     0.213200000000     1.2428     
H2       H      0.567580000000     0.383915000000     0.252313333333     0.0404219  
H3       H      0.680570000000     0.371065000000     0.249460000000     0.0991955  
H1       H      0.730737500000     0.262790000000     0.043553333333     0.342873   
O1       O      0.545030000000     0.491345000000     0.146716666667    -2.2253     
O2       O      0.561762500000     0.049925000000     0.205303333333    -1.16735    
O3       O      0.634610000000     0.065615000000     0.194793333333    -1.30642    
O4       O      0.612650000000     0.203350000000     0.293223333333    -1.52768    
O5       O      0.695690000000     0.193330000000     0.299806666667    -1.37965    
C1       C      0.607442500000     0.076505000000     0.211273333333     0.789247   
C2       C      0.638610000000     0.117520000000     0.240676666667    -0.131791   
C3       C      0.613945000000     0.136040000000     0.257936666667    -0.357362   
C4       C      0.644672500000     0.179505000000     0.286800000000     1.24283    
H2       H      0.682420000000     0.133915000000     0.247686666667     0.0402943  
H3       H      0.569430000000     0.121065000000     0.250540000000     0.099019   
H1       H      0.519262500000     0.012790000000     0.123113333333     0.340885   
Al1      Al     0.625000000000     0.250000000000     0.333333333333     5.89338    
Al2      Al     0.500000000000     0.250000000000     0.333333333333     5.27563    
O1       O      0.545030000000     0.258655000000     0.646716666667    -2.22521    
O2       O      0.561762500000     0.200075000000     0.371970000000    -1.17052    
O3       O      0.634610000000     0.184385000000     0.361460000000    -1.31073    
O4       O      0.612650000000     0.046650000000     0.459890000000    -1.52308    
O5       O      0.695690000000     0.056670000000     0.466473333333    -1.3752     
C1       C      0.607442500000     0.173495000000     0.377940000000     0.791994   
C2       C      0.638610000000     0.132480000000     0.407343333333    -0.133281   
C3       C      0.613945000000     0.113960000000     0.424603333333    -0.355723   
C4       C      0.644672500000     0.070495000000     0.453466666667     1.23886    
H2       H      0.682420000000     0.116085000000     0.414353333333     0.040657   
H3       H      0.569430000000     0.128935000000     0.417206666667     0.0986532  
H1       H      0.519262500000     0.237210000000     0.623113333333     0.345081   
Al1      Al     0.625000000000     0.000000000000     0.500000000000     5.86821    
Al2      Al     0.500000000000     0.000000000000     0.500000000000     5.25264    
O1       O      0.704970000000     0.008655000000     0.519950000000    -2.22009    
O2       O      0.688237500000     0.450075000000     0.461363333333    -1.17034    
O3       O      0.615390000000     0.434385000000     0.471873333333    -1.31064    
O4       O      0.637350000000     0.296650000000     0.373443333333    -1.52753    
O5       O      0.554310000000     0.306670000000     0.366860000000    -1.37969    
C1       C      0.642557500000     0.423495000000     0.455393333333     0.791786   
C2       C      0.611390000000     0.382480000000     0.425990000000    -0.13256    
C3       C      0.636055000000     0.363960000000     0.408730000000    -0.356906   
C4       C      0.605327500000     0.320495000000     0.379866666667     1.24275    
H2       H      0.567580000000     0.366085000000     0.418980000000     0.0403714  
H3       H      0.680570000000     0.378935000000     0.416126666667     0.0991308  
H1       H      0.730737500000     0.487210000000     0.543553333333     0.345424   
O1       O      0.704970000000     0.241345000000     0.353283333333    -2.22523    
O2       O      0.688237500000     0.299925000000     0.628030000000    -1.17033    
O3       O      0.615390000000     0.315615000000     0.638540000000    -1.31065    
O4       O      0.637350000000     0.453350000000     0.540110000000    -1.52753    
O5       O      0.554310000000     0.443330000000     0.533526666667    -1.37968    
C1       C      0.642557500000     0.326505000000     0.622060000000     0.791752   
C2       C      0.611390000000     0.367520000000     0.592656666667    -0.132589   
C3       C      0.636055000000     0.386040000000     0.575396666667    -0.356936   
C4       C      0.605327500000     0.429505000000     0.546533333333     1.24269    
H2       H      0.567580000000     0.383915000000     0.585646666667     0.0403343  
H3       H      0.680570000000     0.371065000000     0.582793333333     0.0991018  
H1       H      0.730737500000     0.262790000000     0.376886666667     0.345491   
O1       O      0.545030000000     0.491345000000     0.480050000000    -2.22523    
O2       O      0.561762500000     0.049925000000     0.538636666667    -1.16738    
O3       O      0.634610000000     0.065615000000     0.528126666667    -1.3065     
O4       O      0.612650000000     0.203350000000     0.626556666667    -1.52768    
O5       O      0.695690000000     0.193330000000     0.633140000000    -1.37965    
C1       C      0.607442500000     0.076505000000     0.544606666667     0.789146   
C2       C      0.638610000000     0.117520000000     0.574010000000    -0.131887   
C3       C      0.613945000000     0.136040000000     0.591270000000    -0.35744    
C4       C      0.644672500000     0.179505000000     0.620133333333     1.24272    
H2       H      0.682420000000     0.133915000000     0.581020000000     0.0402017  
H3       H      0.569430000000     0.121065000000     0.583873333333     0.0989274  
H1       H      0.519262500000     0.012790000000     0.456446666667     0.341286   
Al1      Al     0.625000000000     0.250000000000     0.666666666667     5.89299    
Al2      Al     0.500000000000     0.250000000000     0.666666666667     5.27524    
O1       O      0.545030000000     0.258655000000     0.980050000000    -2.18439    
O2       O      0.561762500000     0.200075000000     0.705303333333    -1.1705     
O3       O      0.634610000000     0.184385000000     0.694793333333    -1.31072    
O4       O      0.612650000000     0.046650000000     0.793223333333    -1.52327    
O5       O      0.695690000000     0.056670000000     0.799806666667    -1.37536    
C1       C      0.607442500000     0.173495000000     0.711273333333     0.791904   
C2       C      0.638610000000     0.132480000000     0.740676666667    -0.13329    
C3       C      0.613945000000     0.113960000000     0.757936666667    -0.355817   
C4       C      0.644672500000     0.070495000000     0.786800000000     1.23898    
H2       H      0.682420000000     0.116085000000     0.747686666667     0.0405923  
H3       H      0.569430000000     0.128935000000     0.750540000000     0.0986244  
H1       H      0.519262500000     0.237210000000     0.956446666667     0.341565   
Al1      Al     0.625000000000     0.000000000000     0.833333333333     5.86882    
Al2      Al     0.500000000000     0.000000000000     0.833333333333     5.25329    
O1       O      0.704970000000     0.008655000000     0.853283333333    -2.22021    
O2       O      0.688237500000     0.450075000000     0.794696666667    -1.17051    
O3       O      0.615390000000     0.434385000000     0.805206666667    -1.31079    
O4       O      0.637350000000     0.296650000000     0.706776666667    -1.5275     
O5       O      0.554310000000     0.306670000000     0.700193333333    -1.37967    
C1       C      0.642557500000     0.423495000000     0.788726666667     0.791852   
C2       C      0.611390000000     0.382480000000     0.759323333333    -0.132643   
C3       C      0.636055000000     0.363960000000     0.742063333333    -0.35692    
C4       C      0.605327500000     0.320495000000     0.713200000000     1.24265    
H2       H      0.567580000000     0.366085000000     0.752313333333     0.0403414  
H3       H      0.680570000000     0.378935000000     0.749460000000     0.099071   
H1       H      0.730737500000     0.487210000000     0.876886666667     0.346209   
O1       O      0.704970000000     0.241345000000     0.686616666667    -2.22513    
O2       O      0.688237500000     0.299925000000     0.961363333333    -1.15024    
O3       O      0.615390000000     0.315615000000     0.971873333333    -1.28727    
O4       O      0.637350000000     0.453350000000     0.873443333333    -1.52724    
O5       O      0.554310000000     0.443330000000     0.866860000000    -1.37972    
C1       C      0.642557500000     0.326505000000     0.955393333333     0.782298   
C2       C      0.611390000000     0.367520000000     0.925990000000    -0.127771   
C3       C      0.636055000000     0.386040000000     0.908730000000    -0.358147   
C4       C      0.605327500000     0.429505000000     0.879866666667     1.24372    
H2       H      0.567580000000     0.383915000000     0.918980000000     0.0402302  
H3       H      0.680570000000     0.371065000000     0.916126666667     0.100601   
H1       H      0.730737500000     0.262790000000     0.710220000000     0.345442   
O1       O      0.545030000000     0.491345000000     0.813383333333    -2.22552    
O2       O      0.561762500000     0.049925000000     0.871970000000    -1.16724    
O3       O      0.634610000000     0.065615000000     0.861460000000    -1.30649    
O4       O      0.612650000000     0.203350000000     0.959890000000    -1.5024     
O5       O      0.695690000000     0.193330000000     0.966473333333    -1.35548    
C1       C      0.607442500000     0.076505000000     0.877940000000     0.790565   
C2       C      0.638610000000     0.117520000000     0.907343333333    -0.134284   
C3       C      0.613945000000     0.136040000000     0.924603333333    -0.350102   
C4       C      0.644672500000     0.179505000000     0.953466666667     1.22704    
H2       H      0.682420000000     0.133915000000     0.914353333333     0.0422435  
H3       H      0.569430000000     0.121065000000     0.917206666667     0.0985687  
H1       H      0.519262500000     0.012790000000     0.789780000000     0.34125    
Al1      Al     0.625000000000     0.750000000000     0.000000000000     5.79887    
Al2      Al     0.500000000000     0.750000000000     0.000000000000     5.1894     
O1       O      0.545030000000     0.758655000000     0.313383333333    -2.22529    
O2       O      0.561762500000     0.700075000000     0.038636666667    -1.1572     
O3       O      0.634610000000     0.684385000000     0.028126666667    -1.29661    
O4       O      0.612650000000     0.546650000000     0.126556666667    -1.52816    
O5       O      0.695690000000     0.556670000000     0.133140000000    -1.37991    
C1       C      0.607442500000     0.673495000000     0.044606666667     0.781794   
C2       C      0.638610000000     0.632480000000     0.074010000000    -0.12971    
C3       C      0.613945000000     0.613960000000     0.091270000000    -0.358843   
C4       C      0.644672500000     0.570495000000     0.120133333333     1.24325    
H2       H      0.682420000000     0.616085000000     0.081020000000     0.0392468  
H3       H      0.569430000000     0.628935000000     0.083873333333     0.0991049  
H1       H      0.519262500000     0.737210000000     0.289780000000     0.345176   
Al1      Al     0.625000000000     0.500000000000     0.166666666667     5.89335    
Al2      Al     0.500000000000     0.500000000000     0.166666666667     5.27583    
O1       O      0.704970000000     0.508655000000     0.186616666667    -2.22519    
O2       O      0.688237500000     0.950075000000     0.128030000000    -1.16516    
O3       O      0.615390000000     0.934385000000     0.138540000000    -1.30519    
O4       O      0.637350000000     0.796650000000     0.040110000000    -1.50991    
O5       O      0.554310000000     0.806670000000     0.033526666667    -1.36488    
C1       C      0.642557500000     0.923495000000     0.122060000000     0.790059   
C2       C      0.611390000000     0.882480000000     0.092656666667    -0.134001   
C3       C      0.636055000000     0.863960000000     0.075396666667    -0.352755   
C4       C      0.605327500000     0.820495000000     0.046533333333     1.2277     
H2       H      0.567580000000     0.866085000000     0.085646666667     0.0408409  
H3       H      0.680570000000     0.878935000000     0.082793333333     0.0979683  
H1       H      0.730737500000     0.987210000000     0.210220000000     0.347728   
O1       O      0.704970000000     0.741345000000     0.019950000000    -2.19817    
O2       O      0.688237500000     0.799925000000     0.294696666667    -1.17037    
O3       O      0.615390000000     0.815615000000     0.305206666667    -1.31056    
O4       O      0.637350000000     0.953350000000     0.206776666667    -1.5207     
O5       O      0.554310000000     0.943330000000     0.200193333333    -1.37371    
C1       C      0.642557500000     0.826505000000     0.288726666667     0.792259   
C2       C      0.611390000000     0.867520000000     0.259323333333    -0.133173   
C3       C      0.636055000000     0.886040000000     0.242063333333    -0.354921   
C4       C      0.605327500000     0.929505000000     0.213200000000     1.23839    
H2       H      0.567580000000     0.883915000000     0.252313333333     0.0409722  
H3       H      0.680570000000     0.871065000000     0.249460000000     0.098972   
H1       H      0.730737500000     0.762790000000     0.043553333333     0.34289    
O1       O      0.545030000000     0.991345000000     0.146716666667    -2.21243    
O2       O      0.561762500000     0.549925000000     0.205303333333    -1.17041    
O3       O      0.634610000000     0.565615000000     0.194793333333    -1.31051    
O4       O      0.612650000000     0.703350000000     0.293223333333    -1.52765    
O5       O      0.695690000000     0.693330000000     0.299806666667    -1.37958    
C1       C      0.607442500000     0.576505000000     0.211273333333     0.791877   
C2       C      0.638610000000     0.617520000000     0.240676666667    -0.132499   
C3       C      0.613945000000     0.636040000000     0.257936666667    -0.356881   
C4       C      0.644672500000     0.679505000000     0.286800000000     1.24275    
H2       H      0.682420000000     0.633915000000     0.247686666667     0.0405766  
H3       H      0.569430000000     0.621065000000     0.250540000000     0.0990314  
H1       H      0.519262500000     0.512790000000     0.123113333333     0.344701   
Al1      Al     0.625000000000     0.750000000000     0.333333333333     5.89345    
Al2      Al     0.500000000000     0.750000000000     0.333333333333     5.27582    
O1       O      0.545030000000     0.758655000000     0.646716666667    -2.2252     
O2       O      0.561762500000     0.700075000000     0.371970000000    -1.17049    
O3       O      0.634610000000     0.684385000000     0.361460000000    -1.31063    
O4       O      0.612650000000     0.546650000000     0.459890000000    -1.52763    
O5       O      0.695690000000     0.556670000000     0.466473333333    -1.37953    
C1       C      0.607442500000     0.673495000000     0.377940000000     0.791839   
C2       C      0.638610000000     0.632480000000     0.407343333333    -0.132581   
C3       C      0.613945000000     0.613960000000     0.424603333333    -0.356916   
C4       C      0.644672500000     0.570495000000     0.453466666667     1.24266    
H2       H      0.682420000000     0.616085000000     0.414353333333     0.040518   
H3       H      0.569430000000     0.628935000000     0.417206666667     0.0989665  
H1       H      0.519262500000     0.737210000000     0.623113333333     0.345082   
Al1      Al     0.625000000000     0.500000000000     0.500000000000     5.8931     
Al2      Al     0.500000000000     0.500000000000     0.500000000000     5.27539    
O1       O      0.704970000000     0.508655000000     0.519950000000    -2.22514    
O2       O      0.688237500000     0.950075000000     0.461363333333    -1.16457    
O3       O      0.615390000000     0.934385000000     0.471873333333    -1.3049     
O4       O      0.637350000000     0.796650000000     0.373443333333    -1.52757    
O5       O      0.554310000000     0.806670000000     0.366860000000    -1.37968    
C1       C      0.642557500000     0.923495000000     0.455393333333     0.789254   
C2       C      0.611390000000     0.882480000000     0.425990000000    -0.131255   
C3       C      0.636055000000     0.863960000000     0.408730000000    -0.357263   
C4       C      0.605327500000     0.820495000000     0.379866666667     1.24306    
H2       H      0.567580000000     0.866085000000     0.418980000000     0.0402625  
H3       H      0.680570000000     0.878935000000     0.416126666667     0.0995669  
H1       H      0.730737500000     0.987210000000     0.543553333333     0.347654   
O1       O      0.704970000000     0.741345000000     0.353283333333    -2.22526    
O2       O      0.688237500000     0.799925000000     0.628030000000    -1.17039    
O3       O      0.615390000000     0.815615000000     0.638540000000    -1.31057    
O4       O      0.637350000000     0.953350000000     0.540110000000    -1.52073    
O5       O      0.554310000000     0.943330000000     0.533526666667    -1.37373    
C1       C      0.642557500000     0.826505000000     0.622060000000     0.79216    
C2       C      0.611390000000     0.867520000000     0.592656666667    -0.133254   
C3       C      0.636055000000     0.886040000000     0.575396666667    -0.355016   
C4       C      0.605327500000     0.929505000000     0.546533333333     1.23828    
H2       H      0.567580000000     0.883915000000     0.585646666667     0.0408846  
H3       H      0.680570000000     0.871065000000     0.582793333333     0.0988782  
H1       H      0.730737500000     0.762790000000     0.376886666667     0.345508   
O1       O      0.545030000000     0.991345000000     0.480050000000    -2.21235    
O2       O      0.561762500000     0.549925000000     0.538636666667    -1.17044    
O3       O      0.634610000000     0.565615000000     0.528126666667    -1.31059    
O4       O      0.612650000000     0.703350000000     0.626556666667    -1.52766    
O5       O      0.695690000000     0.693330000000     0.633140000000    -1.37958    
C1       C      0.607442500000     0.576505000000     0.544606666667     0.791776   
C2       C      0.638610000000     0.617520000000     0.574010000000    -0.132595   
C3       C      0.613945000000     0.636040000000     0.591270000000    -0.35696    
C4       C      0.644672500000     0.679505000000     0.620133333333     1.24264    
H2       H      0.682420000000     0.633915000000     0.581020000000     0.0404841  
H3       H      0.569430000000     0.621065000000     0.583873333333     0.0989398  
H1       H      0.519262500000     0.512790000000     0.456446666667     0.345103   
Al1      Al     0.625000000000     0.750000000000     0.666666666667     5.89306    
Al2      Al     0.500000000000     0.750000000000     0.666666666667     5.27543    
O1       O      0.545030000000     0.758655000000     0.980050000000    -2.18438    
O2       O      0.561762500000     0.700075000000     0.705303333333    -1.17047    
O3       O      0.634610000000     0.684385000000     0.694793333333    -1.31062    
O4       O      0.612650000000     0.546650000000     0.793223333333    -1.52781    
O5       O      0.695690000000     0.556670000000     0.799806666667    -1.3797     
C1       C      0.607442500000     0.673495000000     0.711273333333     0.791749   
C2       C      0.638610000000     0.632480000000     0.740676666667    -0.13259    
C3       C      0.613945000000     0.613960000000     0.757936666667    -0.35701    
C4       C      0.644672500000     0.570495000000     0.786800000000     1.24278    
H2       H      0.682420000000     0.616085000000     0.747686666667     0.0404534  
H3       H      0.569430000000     0.628935000000     0.750540000000     0.0989377  
H1       H      0.519262500000     0.737210000000     0.956446666667     0.341566   
Al1      Al     0.625000000000     0.500000000000     0.833333333333     5.89371    
Al2      Al     0.500000000000     0.500000000000     0.833333333333     5.27603    
O1       O      0.704970000000     0.508655000000     0.853283333333    -2.22526    
O2       O      0.688237500000     0.950075000000     0.794696666667    -1.16474    
O3       O      0.615390000000     0.934385000000     0.805206666667    -1.30505    
O4       O      0.637350000000     0.796650000000     0.706776666667    -1.52753    
O5       O      0.554310000000     0.806670000000     0.700193333333    -1.37966    
C1       C      0.642557500000     0.923495000000     0.788726666667     0.789319   
C2       C      0.611390000000     0.882480000000     0.759323333333    -0.131338   
C3       C      0.636055000000     0.863960000000     0.742063333333    -0.357276   
C4       C      0.605327500000     0.820495000000     0.713200000000     1.24296    
H2       H      0.567580000000     0.866085000000     0.752313333333     0.0402325  
H3       H      0.680570000000     0.878935000000     0.749460000000     0.0995071  
H1       H      0.730737500000     0.987210000000     0.876886666667     0.348439   
O1       O      0.704970000000     0.741345000000     0.686616666667    -2.22517    
O2       O      0.688237500000     0.799925000000     0.961363333333    -1.1503     
O3       O      0.615390000000     0.815615000000     0.971873333333    -1.28719    
O4       O      0.637350000000     0.953350000000     0.873443333333    -1.52045    
O5       O      0.554310000000     0.943330000000     0.866860000000    -1.37376    
C1       C      0.642557500000     0.826505000000     0.955393333333     0.782706   
C2       C      0.611390000000     0.867520000000     0.925990000000    -0.128436   
C3       C      0.636055000000     0.886040000000     0.908730000000    -0.356227   
C4       C      0.605327500000     0.929505000000     0.879866666667     1.23931    
H2       H      0.567580000000     0.883915000000     0.918980000000     0.0407804  
H3       H      0.680570000000     0.871065000000     0.916126666667     0.100377   
H1       H      0.730737500000     0.762790000000     0.710220000000     0.34546    
O1       O      0.545030000000     0.991345000000     0.813383333333    -2.21265    
O2       O      0.561762500000     0.549925000000     0.871970000000    -1.1703     
O3       O      0.634610000000     0.565615000000     0.861460000000    -1.31059    
O4       O      0.612650000000     0.703350000000     0.959890000000    -1.50238    
O5       O      0.695690000000     0.693330000000     0.966473333333    -1.35542    
C1       C      0.607442500000     0.576505000000     0.877940000000     0.793195   
C2       C      0.638610000000     0.617520000000     0.907343333333    -0.134992   
C3       C      0.613945000000     0.636040000000     0.924603333333    -0.349622   
C4       C      0.644672500000     0.679505000000     0.953466666667     1.22695    
H2       H      0.682420000000     0.633915000000     0.914353333333     0.0425259  
H3       H      0.569430000000     0.621065000000     0.917206666667     0.098581   
H1       H      0.519262500000     0.512790000000     0.789780000000     0.345066   
Al1      Al     0.875000000000     0.250000000000     0.000000000000     5.78865    
Al2      Al     0.750000000000     0.250000000000     0.000000000000     5.18926    
O1       O      0.795030000000     0.258655000000     0.313383333333    -2.22333    
O2       O      0.811762500000     0.200075000000     0.038636666667    -1.15689    
O3       O      0.884610000000     0.184385000000     0.028126666667    -1.29314    
O4       O      0.862650000000     0.046650000000     0.126556666667    -1.51597    
O5       O      0.945690000000     0.056670000000     0.133140000000    -1.34036    
C1       C      0.857442500000     0.173495000000     0.044606666667     0.783552   
C2       C      0.888610000000     0.132480000000     0.074010000000    -0.132256   
C3       C      0.863945000000     0.113960000000     0.091270000000    -0.349782   
C4       C      0.894672500000     0.070495000000     0.120133333333     1.22529    
H2       H      0.932420000000     0.116085000000     0.081020000000     0.0457758  
H3       H      0.819430000000     0.128935000000     0.083873333333     0.0977514  
H1       H      0.769262500000     0.237210000000     0.289780000000     0.344835   
Al1      Al     0.875000000000     0.000000000000     0.166666666667     5.85742    
Al2      Al     0.750000000000     0.000000000000     0.166666666667     5.25274    
O1       O      0.954970000000     0.008655000000     0.186616666667    -2.18827    
O2       O      0.938237500000     0.450075000000     0.128030000000    -1.13997    
O3       O      0.865390000000     0.434385000000     0.138540000000    -1.30454    
O4       O      0.887350000000     0.296650000000     0.040110000000    -1.5057     
O5       O      0.804310000000     0.306670000000     0.033526666667    -1.36456    
C1       C      0.892557500000     0.423495000000     0.122060000000     0.783752   
C2       C      0.861390000000     0.382480000000     0.092656666667    -0.129423   
C3       C      0.886055000000     0.363960000000     0.075396666667    -0.353082   
C4       C      0.855327500000     0.320495000000     0.046533333333     1.22812    
H2       H      0.817580000000     0.366085000000     0.085646666667     0.0403452  
H3       H      0.930570000000     0.378935000000     0.082793333333     0.103507   
H1       H      0.980737500000     0.487210000000     0.210220000000     0.352272   
O1       O      0.954970000000     0.241345000000     0.019950000000    -2.1668     
O2       O      0.938237500000     0.299925000000     0.294696666667    -1.13918    
O3       O      0.865390000000     0.315615000000     0.305206666667    -1.30422    
O4       O      0.887350000000     0.453350000000     0.206776666667    -1.52316    
O5       O      0.804310000000     0.443330000000     0.200193333333    -1.37925    
C1       C      0.892557500000     0.326505000000     0.288726666667     0.78296    
C2       C      0.861390000000     0.367520000000     0.259323333333    -0.126608   
C3       C      0.886055000000     0.386040000000     0.242063333333    -0.357498   
C4       C      0.855327500000     0.429505000000     0.213200000000     1.24343    
H2       H      0.817580000000     0.383915000000     0.252313333333     0.0398191  
H3       H      0.930570000000     0.371065000000     0.249460000000     0.105192   
H1       H      0.980737500000     0.262790000000     0.043553333333     0.349629   
O1       O      0.795030000000     0.491345000000     0.146716666667    -2.22335    
O2       O      0.811762500000     0.049925000000     0.205303333333    -1.16693    
O3       O      0.884610000000     0.065615000000     0.194793333333    -1.30271    
O4       O      0.862650000000     0.203350000000     0.293223333333    -1.51998    
O5       O      0.945690000000     0.193330000000     0.299806666667    -1.34424    
C1       C      0.857442500000     0.076505000000     0.211273333333     0.790797   
C2       C      0.888610000000     0.117520000000     0.240676666667    -0.13363    
C3       C      0.863945000000     0.136040000000     0.257936666667    -0.349458   
C4       C      0.894672500000     0.179505000000     0.286800000000     1.22859    
H2       H      0.932420000000     0.133915000000     0.247686666667     0.0467108  
H3       H      0.819430000000     0.121065000000     0.250540000000     0.0979759  
H1       H      0.769262500000     0.012790000000     0.123113333333     0.340547   
Al1      Al     0.875000000000     0.250000000000     0.333333333333     5.88224    
Al2      Al     0.750000000000     0.250000000000     0.333333333333     5.27526    
O1       O      0.795030000000     0.258655000000     0.646716666667    -2.22324    
O2       O      0.811762500000     0.200075000000     0.371970000000    -1.1701     
O3       O      0.884610000000     0.184385000000     0.361460000000    -1.30701    
O4       O      0.862650000000     0.046650000000     0.459890000000    -1.51538    
O5       O      0.945690000000     0.056670000000     0.466473333333    -1.33974    
C1       C      0.857442500000     0.173495000000     0.377940000000     0.793542   
C2       C      0.888610000000     0.132480000000     0.407343333333    -0.135123   
C3       C      0.863945000000     0.113960000000     0.424603333333    -0.34781    
C4       C      0.894672500000     0.070495000000     0.453466666667     1.22459    
H2       H      0.932420000000     0.116085000000     0.414353333333     0.0470825  
H3       H      0.819430000000     0.128935000000     0.417206666667     0.0976077  
H1       H      0.769262500000     0.237210000000     0.623113333333     0.34474    
Al1      Al     0.875000000000     0.000000000000     0.500000000000     5.85705    
Al2      Al     0.750000000000     0.000000000000     0.500000000000     5.25228    
O1       O      0.954970000000     0.008655000000     0.519950000000    -2.188      
O2       O      0.938237500000     0.450075000000     0.461363333333    -1.13916    
O3       O      0.865390000000     0.434385000000     0.471873333333    -1.30421    
O4       O      0.887350000000     0.296650000000     0.373443333333    -1.52318    
O5       O      0.804310000000     0.306670000000     0.366860000000    -1.37927    
C1       C      0.892557500000     0.423495000000     0.455393333333     0.782878   
C2       C      0.861390000000     0.382480000000     0.425990000000    -0.126653   
C3       C      0.886055000000     0.363960000000     0.408730000000    -0.357564   
C4       C      0.855327500000     0.320495000000     0.379866666667     1.24337    
H2       H      0.817580000000     0.366085000000     0.418980000000     0.0397667  
H3       H      0.930570000000     0.378935000000     0.416126666667     0.105135   
H1       H      0.980737500000     0.487210000000     0.543553333333     0.352197   
O1       O      0.954970000000     0.241345000000     0.353283333333    -2.19318    
O2       O      0.938237500000     0.299925000000     0.628030000000    -1.13922    
O3       O      0.865390000000     0.315615000000     0.638540000000    -1.30423    
O4       O      0.887350000000     0.453350000000     0.540110000000    -1.52317    
O5       O      0.804310000000     0.443330000000     0.533526666667    -1.37926    
C1       C      0.892557500000     0.326505000000     0.622060000000     0.78286    
C2       C      0.861390000000     0.367520000000     0.592656666667    -0.126698   
C3       C      0.886055000000     0.386040000000     0.575396666667    -0.357593   
C4       C      0.855327500000     0.429505000000     0.546533333333     1.24331    
H2       H      0.817580000000     0.383915000000     0.585646666667     0.0397302  
H3       H      0.930570000000     0.371065000000     0.582793333333     0.105091   
H1       H      0.980737500000     0.262790000000     0.376886666667     0.352277   
O1       O      0.795030000000     0.491345000000     0.480050000000    -2.22326    
O2       O      0.811762500000     0.049925000000     0.538636666667    -1.16695    
O3       O      0.884610000000     0.065615000000     0.528126666667    -1.30277    
O4       O      0.862650000000     0.203350000000     0.626556666667    -1.51999    
O5       O      0.945690000000     0.193330000000     0.633140000000    -1.34428    
C1       C      0.857442500000     0.076505000000     0.544606666667     0.790688   
C2       C      0.888610000000     0.117520000000     0.574010000000    -0.133726   
C3       C      0.863945000000     0.136040000000     0.591270000000    -0.349547   
C4       C      0.894672500000     0.179505000000     0.620133333333     1.22848    
H2       H      0.932420000000     0.133915000000     0.581020000000     0.0466115  
H3       H      0.819430000000     0.121065000000     0.583873333333     0.0978835  
H1       H      0.769262500000     0.012790000000     0.456446666667     0.340947   
Al1      Al     0.875000000000     0.250000000000     0.666666666667     5.88183    
Al2      Al     0.750000000000     0.250000000000     0.666666666667     5.27487    
O1       O      0.795030000000     0.258655000000     0.980050000000    -2.18278    
O2       O      0.811762500000     0.200075000000     0.705303333333    -1.17007    
O3       O      0.884610000000     0.184385000000     0.694793333333    -1.30701    
O4       O      0.862650000000     0.046650000000     0.793223333333    -1.51563    
O5       O      0.945690000000     0.056670000000     0.799806666667    -1.34024    
C1       C      0.857442500000     0.173495000000     0.711273333333     0.793431   
C2       C      0.888610000000     0.132480000000     0.740676666667    -0.135117   
C3       C      0.863945000000     0.113960000000     0.757936666667    -0.347981   
C4       C      0.894672500000     0.070495000000     0.786800000000     1.22483    
H2       H      0.932420000000     0.116085000000     0.747686666667     0.0469582  
H3       H      0.819430000000     0.128935000000     0.750540000000     0.0975868  
H1       H      0.769262500000     0.237210000000     0.956446666667     0.341261   
Al1      Al     0.875000000000     0.000000000000     0.833333333333     5.85774    
Al2      Al     0.750000000000     0.000000000000     0.833333333333     5.25291    
O1       O      0.954970000000     0.008655000000     0.853283333333    -2.18841    
O2       O      0.938237500000     0.450075000000     0.794696666667    -1.13962    
O3       O      0.865390000000     0.434385000000     0.805206666667    -1.30442    
O4       O      0.887350000000     0.296650000000     0.706776666667    -1.52316    
O5       O      0.804310000000     0.306670000000     0.700193333333    -1.37925    
C1       C      0.892557500000     0.423495000000     0.788726666667     0.783013   
C2       C      0.861390000000     0.382480000000     0.759323333333    -0.126794   
C3       C      0.886055000000     0.363960000000     0.742063333333    -0.357572   
C4       C      0.855327500000     0.320495000000     0.713200000000     1.24326    
H2       H      0.817580000000     0.366085000000     0.752313333333     0.0397405  
H3       H      0.930570000000     0.378935000000     0.749460000000     0.105019   
H1       H      0.980737500000     0.487210000000     0.876886666667     0.352873   
O1       O      0.954970000000     0.241345000000     0.686616666667    -2.19311    
O2       O      0.938237500000     0.299925000000     0.961363333333    -1.11982    
O3       O      0.865390000000     0.315615000000     0.971873333333    -1.28119    
O4       O      0.887350000000     0.453350000000     0.873443333333    -1.52294    
O5       O      0.804310000000     0.443330000000     0.866860000000    -1.3793     
C1       C      0.892557500000     0.326505000000     0.955393333333     0.773638   
C2       C      0.861390000000     0.367520000000     0.925990000000    -0.12202    
C3       C      0.886055000000     0.386040000000     0.908730000000    -0.358775   
C4       C      0.855327500000     0.429505000000     0.879866666667     1.24431    
H2       H      0.817580000000     0.383915000000     0.918980000000     0.0396364  
H3       H      0.930570000000     0.371065000000     0.916126666667     0.106482   
H1       H      0.980737500000     0.262790000000     0.710220000000     0.352173   
O1       O      0.795030000000     0.491345000000     0.813383333333    -2.22356    
O2       O      0.811762500000     0.049925000000     0.871970000000    -1.16682    
O3       O      0.884610000000     0.065615000000     0.861460000000    -1.30281    
O4       O      0.862650000000     0.203350000000     0.959890000000    -1.49507    
O5       O      0.945690000000     0.193330000000     0.966473333333    -1.32089    
C1       C      0.857442500000     0.076505000000     0.877940000000     0.792067   
C2       C      0.888610000000     0.117520000000     0.907343333333    -0.136069   
C3       C      0.863945000000     0.136040000000     0.924603333333    -0.342399   
C4       C      0.894672500000     0.179505000000     0.953466666667     1.21316    
H2       H      0.932420000000     0.133915000000     0.914353333333     0.0485377  
H3       H      0.819430000000     0.121065000000     0.917206666667     0.0975427  
H1       H      0.769262500000     0.012790000000     0.789780000000     0.340913   
Al1      Al     0.875000000000     0.750000000000     0.000000000000     5.78872    
Al2      Al     0.750000000000     0.750000000000     0.000000000000     5.18945    
O1       O      0.795030000000     0.758655000000     0.313383333333    -2.22333    
O2       O      0.811762500000     0.700075000000     0.038636666667    -1.15685    
O3       O      0.884610000000     0.684385000000     0.028126666667    -1.29304    
O4       O      0.862650000000     0.546650000000     0.126556666667    -1.52051    
O5       O      0.945690000000     0.556670000000     0.133140000000    -1.3447     
C1       C      0.857442500000     0.673495000000     0.044606666667     0.783397   
C2       C      0.888610000000     0.632480000000     0.074010000000    -0.131556   
C3       C      0.863945000000     0.613960000000     0.091270000000    -0.350974   
C4       C      0.894672500000     0.570495000000     0.120133333333     1.22908    
H2       H      0.932420000000     0.616085000000     0.081020000000     0.0456363  
H3       H      0.819430000000     0.628935000000     0.083873333333     0.0980644  
H1       H      0.769262500000     0.737210000000     0.289780000000     0.344835   
Al1      Al     0.875000000000     0.500000000000     0.166666666667     5.88229    
Al2      Al     0.750000000000     0.500000000000     0.166666666667     5.27547    
O1       O      0.954970000000     0.508655000000     0.186616666667    -2.19332    
O2       O      0.938237500000     0.950075000000     0.128030000000    -1.13421    
O3       O      0.865390000000     0.934385000000     0.138540000000    -1.29881    
O4       O      0.887350000000     0.796650000000     0.040110000000    -1.50573    
O5       O      0.804310000000     0.806670000000     0.033526666667    -1.36455    
C1       C      0.892557500000     0.923495000000     0.122060000000     0.781221   
C2       C      0.861390000000     0.882480000000     0.092656666667    -0.128119   
C3       C      0.886055000000     0.863960000000     0.075396666667    -0.353438   
C4       C      0.855327500000     0.820495000000     0.046533333333     1.22843    
H2       H      0.817580000000     0.866085000000     0.085646666667     0.0402364  
H3       H      0.930570000000     0.878935000000     0.082793333333     0.103942   
H1       H      0.980737500000     0.987210000000     0.210220000000     0.354498   
O1       O      0.954970000000     0.741345000000     0.019950000000    -2.16683    
O2       O      0.938237500000     0.799925000000     0.294696666667    -1.13923    
O3       O      0.865390000000     0.815615000000     0.305206666667    -1.30414    
O4       O      0.887350000000     0.953350000000     0.206776666667    -1.51636    
O5       O      0.804310000000     0.943330000000     0.200193333333    -1.3733     
C1       C      0.892557500000     0.826505000000     0.288726666667     0.783369   
C2       C      0.861390000000     0.867520000000     0.259323333333    -0.127273   
C3       C      0.886055000000     0.886040000000     0.242063333333    -0.355579   
C4       C      0.855327500000     0.929505000000     0.213200000000     1.23902    
H2       H      0.817580000000     0.883915000000     0.252313333333     0.0403691  
H3       H      0.930570000000     0.871065000000     0.249460000000     0.104968   
H1       H      0.980737500000     0.762790000000     0.043553333333     0.349646   
O1       O      0.795030000000     0.991345000000     0.146716666667    -2.21049    
O2       O      0.811762500000     0.549925000000     0.205303333333    -1.16999    
O3       O      0.884610000000     0.565615000000     0.194793333333    -1.3068     
O4       O      0.862650000000     0.703350000000     0.293223333333    -1.51996    
O5       O      0.945690000000     0.693330000000     0.299806666667    -1.34418    
C1       C      0.857442500000     0.576505000000     0.211273333333     0.793426   
C2       C      0.888610000000     0.617520000000     0.240676666667    -0.134338   
C3       C      0.863945000000     0.636040000000     0.257936666667    -0.348979   
C4       C      0.894672500000     0.679505000000     0.286800000000     1.22851    
H2       H      0.932420000000     0.633915000000     0.247686666667     0.0469925  
H3       H      0.819430000000     0.621065000000     0.250540000000     0.0979883  
H1       H      0.769262500000     0.512790000000     0.123113333333     0.344361   
Al1      Al     0.875000000000     0.750000000000     0.333333333333     5.88232    
Al2      Al     0.750000000000     0.750000000000     0.333333333333     5.27545    
O1       O      0.795030000000     0.758655000000     0.646716666667    -2.22324    
O2       O      0.811762500000     0.700075000000     0.371970000000    -1.17006    
O3       O      0.884610000000     0.684385000000     0.361460000000    -1.30691    
O4       O      0.862650000000     0.546650000000     0.459890000000    -1.51992    
O5       O      0.945690000000     0.556670000000     0.466473333333    -1.34408    
C1       C      0.857442500000     0.673495000000     0.377940000000     0.793387   
C2       C      0.888610000000     0.632480000000     0.407343333333    -0.134423   
C3       C      0.863945000000     0.613960000000     0.424603333333    -0.349003   
C4       C      0.894672500000     0.570495000000     0.453466666667     1.22839    
H2       H      0.932420000000     0.616085000000     0.414353333333     0.0469432  
H3       H      0.819430000000     0.628935000000     0.417206666667     0.0979209  
H1       H      0.769262500000     0.737210000000     0.623113333333     0.344741   
Al1      Al     0.875000000000     0.500000000000     0.500000000000     5.88193    
Al2      Al     0.750000000000     0.500000000000     0.500000000000     5.27502    
O1       O      0.954970000000     0.508655000000     0.519950000000    -2.19305    
O2       O      0.938237500000     0.950075000000     0.461363333333    -1.13339    
O3       O      0.865390000000     0.934385000000     0.471873333333    -1.29847    
O4       O      0.887350000000     0.796650000000     0.373443333333    -1.52321    
O5       O      0.804310000000     0.806670000000     0.366860000000    -1.37926    
C1       C      0.892557500000     0.923495000000     0.455393333333     0.780347   
C2       C      0.861390000000     0.882480000000     0.425990000000    -0.125349   
C3       C      0.886055000000     0.863960000000     0.408730000000    -0.35792    
C4       C      0.855327500000     0.820495000000     0.379866666667     1.24369    
H2       H      0.817580000000     0.866085000000     0.418980000000     0.0396579  
H3       H      0.930570000000     0.878935000000     0.416126666667     0.10557    
H1       H      0.980737500000     0.987210000000     0.543553333333     0.354423   
O1       O      0.954970000000     0.741345000000     0.353283333333    -2.19322    
O2       O      0.938237500000     0.799925000000     0.628030000000    -1.13928    
O3       O      0.865390000000     0.815615000000     0.638540000000    -1.30415    
O4       O      0.887350000000     0.953350000000     0.540110000000    -1.51638    
O5       O      0.804310000000     0.943330000000     0.533526666667    -1.37331    
C1       C      0.892557500000     0.826505000000     0.622060000000     0.783268   
C2       C      0.861390000000     0.867520000000     0.592656666667    -0.127363   
C3       C      0.886055000000     0.886040000000     0.575396666667    -0.355673   
C4       C      0.855327500000     0.929505000000     0.546533333333     1.2389     
H2       H      0.817580000000     0.883915000000     0.585646666667     0.0402803  
H3       H      0.930570000000     0.871065000000     0.582793333333     0.104867   
H1       H      0.980737500000     0.762790000000     0.376886666667     0.352294   
O1       O      0.795030000000     0.991345000000     0.480050000000    -2.21039    
O2       O      0.811762500000     0.549925000000     0.538636666667    -1.17001    
O3       O      0.884610000000     0.565615000000     0.528126666667    -1.30687    
O4       O      0.862650000000     0.703350000000     0.626556666667    -1.51997    
O5       O      0.945690000000     0.693330000000     0.633140000000    -1.34421    
C1       C      0.857442500000     0.576505000000     0.544606666667     0.793317   
C2       C      0.888610000000     0.617520000000     0.574010000000    -0.134434   
C3       C      0.863945000000     0.636040000000     0.591270000000    -0.349067   
C4       C      0.894672500000     0.679505000000     0.620133333333     1.2284     
H2       H      0.932420000000     0.633915000000     0.581020000000     0.0468933  
H3       H      0.819430000000     0.621065000000     0.583873333333     0.0978959  
H1       H      0.769262500000     0.512790000000     0.456446666667     0.344761   
Al1      Al     0.875000000000     0.750000000000     0.666666666667     5.8819     
Al2      Al     0.750000000000     0.750000000000     0.666666666667     5.27506    
O1       O      0.795030000000     0.758655000000     0.980050000000    -2.18277    
O2       O      0.811762500000     0.700075000000     0.705303333333    -1.17004    
O3       O      0.884610000000     0.684385000000     0.694793333333    -1.30691    
O4       O      0.862650000000     0.546650000000     0.793223333333    -1.52017    
O5       O      0.945690000000     0.556670000000     0.799806666667    -1.34457    
C1       C      0.857442500000     0.673495000000     0.711273333333     0.793276   
C2       C      0.888610000000     0.632480000000     0.740676666667    -0.134417   
C3       C      0.863945000000     0.613960000000     0.757936666667    -0.349173   
C4       C      0.894672500000     0.570495000000     0.786800000000     1.22863    
H2       H      0.932420000000     0.616085000000     0.747686666667     0.0468189  
H3       H      0.819430000000     0.628935000000     0.750540000000     0.0978999  
H1       H      0.769262500000     0.737210000000     0.956446666667     0.341262   
Al1      Al     0.875000000000     0.500000000000     0.833333333333     5.88261    
Al2      Al     0.750000000000     0.500000000000     0.833333333333     5.27565    
O1       O      0.954970000000     0.508655000000     0.853283333333    -2.19346    
O2       O      0.938237500000     0.950075000000     0.794696666667    -1.13385    
O3       O      0.865390000000     0.934385000000     0.805206666667    -1.29868    
O4       O      0.887350000000     0.796650000000     0.706776666667    -1.52319    
O5       O      0.804310000000     0.806670000000     0.700193333333    -1.37924    
C1       C      0.892557500000     0.923495000000     0.788726666667     0.780483   
C2       C      0.861390000000     0.882480000000     0.759323333333    -0.12549    
C3       C      0.886055000000     0.863960000000     0.742063333333    -0.357928   
C4       C      0.855327500000     0.820495000000     0.713200000000     1.24357    
H2       H      0.817580000000     0.866085000000     0.752313333333     0.0396317  
H3       H      0.930570000000     0.878935000000     0.749460000000     0.105454   
H1       H      0.980737500000     0.987210000000     0.876886666667     0.355099   
O1       O      0.954970000000     0.741345000000     0.686616666667    -2.19315    
O2       O      0.938237500000     0.799925000000     0.961363333333    -1.11988    
O3       O      0.865390000000     0.815615000000     0.971873333333    -1.28111    
O4       O      0.887350000000     0.953350000000     0.873443333333    -1.51614    
O5       O      0.804310000000     0.943330000000     0.866860000000    -1.37335    
C1       C      0.892557500000     0.826505000000     0.955393333333     0.774046   
C2       C      0.861390000000     0.867520000000     0.925990000000    -0.122685   
C3       C      0.886055000000     0.886040000000     0.908730000000    -0.356856   
C4       C      0.855327500000     0.929505000000     0.879866666667     1.2399     
H2       H      0.817580000000     0.883915000000     0.918980000000     0.0401863  
H3       H      0.930570000000     0.871065000000     0.916126666667     0.106257   
H1       H      0.980737500000     0.762790000000     0.710220000000     0.35219    
O1       O      0.795030000000     0.991345000000     0.813383333333    -2.21069    
O2       O      0.811762500000     0.549925000000     0.871970000000    -1.16988    
O3       O      0.884610000000     0.565615000000     0.861460000000    -1.3069     
O4       O      0.862650000000     0.703350000000     0.959890000000    -1.49505    
O5       O      0.945690000000     0.693330000000     0.966473333333    -1.32082    
C1       C      0.857442500000     0.576505000000     0.877940000000     0.794695   
C2       C      0.888610000000     0.617520000000     0.907343333333    -0.136776   
C3       C      0.863945000000     0.636040000000     0.924603333333    -0.341919   
C4       C      0.894672500000     0.679505000000     0.953466666667     1.21308    
H2       H      0.932420000000     0.633915000000     0.914353333333     0.0488194  
H3       H      0.819430000000     0.621065000000     0.917206666667     0.0975551  
H1       H      0.769262500000     0.512790000000     0.789780000000     0.344727   


