data_Al-Fum

_audit_creation_method RASPA-1.0
_audit_creation_date 2025-7-10
_audit_author_name ''

_citation_id                 1
_citation_year               10.1002/anie.201410459

_cell_length_a    27.3676
_cell_length_b    36.2631
_cell_length_c    42.621
_cell_angle_alpha 90
_cell_angle_beta  122.547
_cell_angle_gamma 90
_cell_volume      35655.6

_symmetry_cell_setting          monoclinic
_symmetry_space_group_name_Hall 'P 1'
_symmetry_space_group_name_H-M  'P 1'
_symmetry_Int_Tables_number     1

_symmetry_equiv_pos_as_xyz 'x,y,z'

loop_
_atom_site_label
_atom_site_type_symbol
_atom_site_fract_x
_atom_site_fract_y
_atom_site_fract_z
_atom_site_charge
Al1      Al     0.125000000000     0.166666666667     0.000000000000     5.78528    
Al2      Al     0.000000000000     0.166666666667     0.000000000000     5.06011    
O1       O      0.045030000000     0.172436666667     0.313383333333    -2.20231    
O2       O      0.061762500000     0.133383333333     0.038636666667    -1.14339    
O3       O      0.134610000000     0.122923333333     0.028126666667    -1.2931     
O4       O      0.112650000000     0.031100000000     0.126556666667    -1.51107    
O5       O      0.195690000000     0.037780000000     0.133140000000    -1.36369    
C1       C      0.107442500000     0.115663333333     0.044606666667     0.774232   
C2       C      0.138610000000     0.088320000000     0.074010000000    -0.130858   
C3       C      0.113945000000     0.075973333333     0.091270000000    -0.356513   
C4       C      0.144672500000     0.046996666667     0.120133333333     1.22816    
H2       H      0.182420000000     0.077390000000     0.081020000000     0.038927   
H3       H      0.069430000000     0.085956666667     0.083873333333     0.0938872  
H1       H      0.019262500000     0.158140000000     0.289780000000     0.336975   
Al1      Al     0.125000000000     0.000000000000     0.166666666667     5.78662    
Al2      Al     0.000000000000     0.000000000000     0.166666666667     5.06001    
O1       O      0.204970000000     0.005770000000     0.186616666667    -2.20364    
O2       O      0.188237500000     0.300050000000     0.128030000000    -1.17088    
O3       O      0.115390000000     0.289590000000     0.138540000000    -1.31115    
O4       O      0.137350000000     0.197766666667     0.040110000000    -1.50421    
O5       O      0.054310000000     0.204446666667     0.033526666667    -1.34919    
C1       C      0.142557500000     0.282330000000     0.122060000000     0.792075   
C2       C      0.111390000000     0.254986666667     0.092656666667    -0.137876   
C3       C      0.136055000000     0.242640000000     0.075396666667    -0.350138   
C4       C      0.105327500000     0.213663333333     0.046533333333     1.21678    
H2       H      0.067580000000     0.244056666667     0.085646666667     0.0369971  
H3       H      0.180570000000     0.252623333333     0.082793333333     0.0966372  
H1       H      0.230737500000     0.324806666667     0.210220000000     0.344747   
O1       O      0.204970000000     0.160896666667     0.019950000000    -2.1955     
O2       O      0.188237500000     0.199950000000     0.294696666667    -1.17022    
O3       O      0.115390000000     0.210410000000     0.305206666667    -1.31087    
O4       O      0.137350000000     0.302233333333     0.206776666667    -1.52166    
O5       O      0.054310000000     0.295553333333     0.200193333333    -1.36363    
C1       C      0.142557500000     0.217670000000     0.288726666667     0.79134    
C2       C      0.111390000000     0.245013333333     0.259323333333    -0.135124   
C3       C      0.136055000000     0.257360000000     0.242063333333    -0.354525   
C4       C      0.105327500000     0.286336666667     0.213200000000     1.23191    
H2       H      0.067580000000     0.255943333333     0.252313333333     0.0364221  
H3       H      0.180570000000     0.247376666667     0.249460000000     0.0982809  
H1       H      0.230737500000     0.175193333333     0.043553333333     0.342214   
O1       O      0.045030000000     0.327563333333     0.146716666667    -2.20244    
O2       O      0.061762500000     0.033283333333     0.205303333333    -1.14471    
O3       O      0.134610000000     0.043743333333     0.194793333333    -1.29123    
O4       O      0.112650000000     0.135566666667     0.293223333333    -1.52757    
O5       O      0.195690000000     0.128886666667     0.299806666667    -1.3798     
C1       C      0.107442500000     0.051003333333     0.211273333333     0.773758   
C2       C      0.138610000000     0.078346666667     0.240676666667    -0.128349   
C3       C      0.113945000000     0.090693333333     0.257936666667    -0.360832   
C4       C      0.144672500000     0.119670000000     0.286800000000     1.24212    
H2       H      0.182420000000     0.089276666667     0.247686666667     0.038669   
H3       H      0.069430000000     0.080710000000     0.250540000000     0.094902   
H1       H      0.019262500000     0.008526666667     0.123113333333     0.322424   
Al1      Al     0.125000000000     0.166666666667     0.333333333333     5.87887    
Al2      Al     0.000000000000     0.166666666667     0.333333333333     5.14325    
O1       O      0.045030000000     0.172436666667     0.646716666667    -2.20223    
O2       O      0.061762500000     0.133383333333     0.371970000000    -1.15626    
O3       O      0.134610000000     0.122923333333     0.361460000000    -1.30694    
O4       O      0.112650000000     0.031100000000     0.459890000000    -1.51055    
O5       O      0.195690000000     0.037780000000     0.466473333333    -1.36332    
C1       C      0.107442500000     0.115663333333     0.377940000000     0.784024   
C2       C      0.138610000000     0.088320000000     0.407343333333    -0.133669   
C3       C      0.113945000000     0.075973333333     0.424603333333    -0.354647   
C4       C      0.144672500000     0.046996666667     0.453466666667     1.22757    
H2       H      0.182420000000     0.077390000000     0.414353333333     0.0401693  
H3       H      0.069430000000     0.085956666667     0.417206666667     0.0936923  
H1       H      0.019262500000     0.158140000000     0.623113333333     0.336855   
Al1      Al     0.125000000000     0.000000000000     0.500000000000     5.78623    
Al2      Al     0.000000000000     0.000000000000     0.500000000000     5.05851    
O1       O      0.204970000000     0.005770000000     0.519950000000    -2.20357    
O2       O      0.188237500000     0.300050000000     0.461363333333    -1.1703     
O3       O      0.115390000000     0.289590000000     0.471873333333    -1.31088    
O4       O      0.137350000000     0.197766666667     0.373443333333    -1.52161    
O5       O      0.054310000000     0.204446666667     0.366860000000    -1.36353    
C1       C      0.142557500000     0.282330000000     0.455393333333     0.791276   
C2       C      0.111390000000     0.254986666667     0.425990000000    -0.135206   
C3       C      0.136055000000     0.242640000000     0.408730000000    -0.354558   
C4       C      0.105327500000     0.213663333333     0.379866666667     1.23179    
H2       H      0.067580000000     0.244056666667     0.418980000000     0.0363697  
H3       H      0.180570000000     0.252623333333     0.416126666667     0.0982018  
H1       H      0.230737500000     0.324806666667     0.543553333333     0.344671   
O1       O      0.204970000000     0.160896666667     0.353283333333    -2.22244    
O2       O      0.188237500000     0.199950000000     0.628030000000    -1.17025    
O3       O      0.115390000000     0.210410000000     0.638540000000    -1.3109     
O4       O      0.137350000000     0.302233333333     0.540110000000    -1.52165    
O5       O      0.054310000000     0.295553333333     0.533526666667    -1.36352    
C1       C      0.142557500000     0.217670000000     0.622060000000     0.791243   
C2       C      0.111390000000     0.245013333333     0.592656666667    -0.135229   
C3       C      0.136055000000     0.257360000000     0.575396666667    -0.354599   
C4       C      0.105327500000     0.286336666667     0.546533333333     1.23171    
H2       H      0.067580000000     0.255943333333     0.585646666667     0.0363134  
H3       H      0.180570000000     0.247376666667     0.582793333333     0.0981798  
H1       H      0.230737500000     0.175193333333     0.376886666667     0.344804   
O1       O      0.045030000000     0.327563333333     0.480050000000    -2.20218    
O2       O      0.061762500000     0.033283333333     0.538636666667    -1.1446     
O3       O      0.134610000000     0.043743333333     0.528126666667    -1.29127    
O4       O      0.112650000000     0.135566666667     0.626556666667    -1.52759    
O5       O      0.195690000000     0.128886666667     0.633140000000    -1.3798     
C1       C      0.107442500000     0.051003333333     0.544606666667     0.773582   
C2       C      0.138610000000     0.078346666667     0.574010000000    -0.128428   
C3       C      0.113945000000     0.090693333333     0.591270000000    -0.360932   
C4       C      0.144672500000     0.119670000000     0.620133333333     1.24201    
H2       H      0.182420000000     0.089276666667     0.581020000000     0.0385698  
H3       H      0.069430000000     0.080710000000     0.583873333333     0.0947872  
H1       H      0.019262500000     0.008526666667     0.456446666667     0.322726   
Al1      Al     0.125000000000     0.166666666667     0.666666666667     5.87847    
Al2      Al     0.000000000000     0.166666666667     0.666666666667     5.1429     
O1       O      0.045030000000     0.172436666667     0.980050000000    -2.16214    
O2       O      0.061762500000     0.133383333333     0.705303333333    -1.15624    
O3       O      0.134610000000     0.122923333333     0.694793333333    -1.30693    
O4       O      0.112650000000     0.031100000000     0.793223333333    -1.51076    
O5       O      0.195690000000     0.037780000000     0.799806666667    -1.36349    
C1       C      0.107442500000     0.115663333333     0.711273333333     0.783929   
C2       C      0.138610000000     0.088320000000     0.740676666667    -0.133674   
C3       C      0.113945000000     0.075973333333     0.757936666667    -0.354747   
C4       C      0.144672500000     0.046996666667     0.786800000000     1.2277     
H2       H      0.182420000000     0.077390000000     0.747686666667     0.0401044  
H3       H      0.069430000000     0.085956666667     0.750540000000     0.0936729  
H1       H      0.019262500000     0.158140000000     0.956446666667     0.333473   
Al1      Al     0.125000000000     0.000000000000     0.833333333333     5.78697    
Al2      Al     0.000000000000     0.000000000000     0.833333333333     5.06029    
O1       O      0.204970000000     0.005770000000     0.853283333333    -2.20372    
O2       O      0.188237500000     0.300050000000     0.794696666667    -1.17048    
O3       O      0.115390000000     0.289590000000     0.805206666667    -1.31104    
O4       O      0.137350000000     0.197766666667     0.706776666667    -1.52157    
O5       O      0.054310000000     0.204446666667     0.700193333333    -1.36351    
C1       C      0.142557500000     0.282330000000     0.788726666667     0.791348   
C2       C      0.111390000000     0.254986666667     0.759323333333    -0.135292   
C3       C      0.136055000000     0.242640000000     0.742063333333    -0.354569   
C4       C      0.105327500000     0.213663333333     0.713200000000     1.23169    
H2       H      0.067580000000     0.244056666667     0.752313333333     0.036351   
H3       H      0.180570000000     0.252623333333     0.749460000000     0.0981422  
H1       H      0.230737500000     0.324806666667     0.876886666667     0.345479   
O1       O      0.204970000000     0.160896666667     0.686616666667    -2.22235    
O2       O      0.188237500000     0.199950000000     0.961363333333    -1.15013    
O3       O      0.115390000000     0.210410000000     0.971873333333    -1.28762    
O4       O      0.137350000000     0.302233333333     0.873443333333    -1.52139    
O5       O      0.054310000000     0.295553333333     0.866860000000    -1.36368    
C1       C      0.142557500000     0.217670000000     0.955393333333     0.781846   
C2       C      0.111390000000     0.245013333333     0.925990000000    -0.13039    
C3       C      0.136055000000     0.257360000000     0.908730000000    -0.355814   
C4       C      0.105327500000     0.286336666667     0.879866666667     1.23283    
H2       H      0.067580000000     0.255943333333     0.918980000000     0.0362613  
H3       H      0.180570000000     0.247376666667     0.916126666667     0.0996995  
H1       H      0.230737500000     0.175193333333     0.710220000000     0.34476    
O1       O      0.045030000000     0.327563333333     0.813383333333    -2.20268    
O2       O      0.061762500000     0.033283333333     0.871970000000    -1.14458    
O3       O      0.134610000000     0.043743333333     0.861460000000    -1.2913     
O4       O      0.112650000000     0.135566666667     0.959890000000    -1.50246    
O5       O      0.195690000000     0.128886666667     0.966473333333    -1.35559    
C1       C      0.107442500000     0.051003333333     0.877940000000     0.775069   
C2       C      0.138610000000     0.078346666667     0.907343333333    -0.130823   
C3       C      0.113945000000     0.090693333333     0.924603333333    -0.353581   
C4       C      0.144672500000     0.119670000000     0.953466666667     1.2264     
H2       H      0.182420000000     0.089276666667     0.914353333333     0.0406329  
H3       H      0.069430000000     0.080710000000     0.917206666667     0.0944775  
H1       H      0.019262500000     0.008526666667     0.789780000000     0.322731   
Al1      Al     0.125000000000     0.500000000000     0.000000000000     5.78495    
Al2      Al     0.000000000000     0.500000000000     0.000000000000     5.05987    
O1       O      0.045030000000     0.505770000000     0.313383333333    -2.20224    
O2       O      0.061762500000     0.466716666667     0.038636666667    -1.14304    
O3       O      0.134610000000     0.456256666667     0.028126666667    -1.29255    
O4       O      0.112650000000     0.364433333333     0.126556666667    -1.52788    
O5       O      0.195690000000     0.371113333333     0.133140000000    -1.37973    
C1       C      0.107442500000     0.448996666667     0.044606666667     0.773605   
C2       C      0.138610000000     0.421653333333     0.074010000000    -0.128199   
C3       C      0.113945000000     0.409306666667     0.091270000000    -0.360919   
C4       C      0.144672500000     0.380330000000     0.120133333333     1.24228    
H2       H      0.182420000000     0.410723333333     0.081020000000     0.0384365  
H3       H      0.069430000000     0.419290000000     0.083873333333     0.0950811  
H1       H      0.019262500000     0.491473333333     0.289780000000     0.336943   
Al1      Al     0.125000000000     0.333333333333     0.166666666667     5.87889    
Al2      Al     0.000000000000     0.333333333333     0.166666666667     5.14428    
O1       O      0.204970000000     0.339103333333     0.186616666667    -2.22237    
O2       O      0.188237500000     0.633383333333     0.128030000000    -1.17089    
O3       O      0.115390000000     0.622923333333     0.138540000000    -1.31118    
O4       O      0.137350000000     0.531100000000     0.040110000000    -1.50427    
O5       O      0.054310000000     0.537780000000     0.033526666667    -1.34925    
C1       C      0.142557500000     0.615663333333     0.122060000000     0.791963   
C2       C      0.111390000000     0.588320000000     0.092656666667    -0.13796    
C3       C      0.136055000000     0.575973333333     0.075396666667    -0.350247   
C4       C      0.105327500000     0.546996666667     0.046533333333     1.21668    
H2       H      0.067580000000     0.577390000000     0.085646666667     0.0368913  
H3       H      0.180570000000     0.585956666667     0.082793333333     0.0965482  
H1       H      0.230737500000     0.658140000000     0.210220000000     0.344674   
O1       O      0.204970000000     0.494230000000     0.019950000000    -2.19535    
O2       O      0.188237500000     0.533283333333     0.294696666667    -1.17031    
O3       O      0.115390000000     0.543743333333     0.305206666667    -1.31092    
O4       O      0.137350000000     0.635566666667     0.206776666667    -1.52166    
O5       O      0.054310000000     0.628886666667     0.200193333333    -1.36364    
C1       C      0.142557500000     0.551003333333     0.288726666667     0.791243   
C2       C      0.111390000000     0.578346666667     0.259323333333    -0.135229   
C3       C      0.136055000000     0.590693333333     0.242063333333    -0.354608   
C4       C      0.105327500000     0.619670000000     0.213200000000     1.23179    
H2       H      0.067580000000     0.589276666667     0.252313333333     0.0363376  
H3       H      0.180570000000     0.580710000000     0.249460000000     0.0981808  
H1       H      0.230737500000     0.508526666667     0.043553333333     0.342066   
O1       O      0.045030000000     0.660896666667     0.146716666667    -2.20235    
O2       O      0.061762500000     0.366616666667     0.205303333333    -1.15601    
O3       O      0.134610000000     0.377076666667     0.194793333333    -1.30638    
O4       O      0.112650000000     0.468900000000     0.293223333333    -1.52732    
O5       O      0.195690000000     0.462220000000     0.299806666667    -1.37933    
C1       C      0.107442500000     0.384336666667     0.211273333333     0.783535   
C2       C      0.138610000000     0.411680000000     0.240676666667    -0.130964   
C3       C      0.113945000000     0.424026666667     0.257936666667    -0.358977   
C4       C      0.144672500000     0.453003333333     0.286800000000     1.24172    
H2       H      0.182420000000     0.422610000000     0.247686666667     0.039744   
H3       H      0.069430000000     0.414043333333     0.250540000000     0.0949665  
H1       H      0.019262500000     0.341860000000     0.123113333333     0.33657    
Al1      Al     0.125000000000     0.500000000000     0.333333333333     5.87855    
Al2      Al     0.000000000000     0.500000000000     0.333333333333     5.14302    
O1       O      0.045030000000     0.505770000000     0.646716666667    -2.20216    
O2       O      0.061762500000     0.466716666667     0.371970000000    -1.15592    
O3       O      0.134610000000     0.456256666667     0.361460000000    -1.3064     
O4       O      0.112650000000     0.364433333333     0.459890000000    -1.52736    
O5       O      0.195690000000     0.371113333333     0.466473333333    -1.37937    
C1       C      0.107442500000     0.448996666667     0.377940000000     0.783398   
C2       C      0.138610000000     0.421653333333     0.407343333333    -0.13101    
C3       C      0.113945000000     0.409306666667     0.424603333333    -0.359053   
C4       C      0.144672500000     0.380330000000     0.453466666667     1.2417     
H2       H      0.182420000000     0.410723333333     0.414353333333     0.0396791  
H3       H      0.069430000000     0.419290000000     0.417206666667     0.0948864  
H1       H      0.019262500000     0.491473333333     0.623113333333     0.336822   
Al1      Al     0.125000000000     0.333333333333     0.500000000000     5.87852    
Al2      Al     0.000000000000     0.333333333333     0.500000000000     5.1428     
O1       O      0.204970000000     0.339103333333     0.519950000000    -2.2223     
O2       O      0.188237500000     0.633383333333     0.461363333333    -1.17031    
O3       O      0.115390000000     0.622923333333     0.471873333333    -1.31091    
O4       O      0.137350000000     0.531100000000     0.373443333333    -1.52169    
O5       O      0.054310000000     0.537780000000     0.366860000000    -1.36359    
C1       C      0.142557500000     0.615663333333     0.455393333333     0.791164   
C2       C      0.111390000000     0.588320000000     0.425990000000    -0.13529    
C3       C      0.136055000000     0.575973333333     0.408730000000    -0.354669   
C4       C      0.105327500000     0.546996666667     0.379866666667     1.2317     
H2       H      0.067580000000     0.577390000000     0.418980000000     0.0362637  
H3       H      0.180570000000     0.585956666667     0.416126666667     0.098113   
H1       H      0.230737500000     0.658140000000     0.543553333333     0.344598   
O1       O      0.204970000000     0.494230000000     0.353283333333    -2.2223     
O2       O      0.188237500000     0.533283333333     0.628030000000    -1.17033    
O3       O      0.115390000000     0.543743333333     0.638540000000    -1.31094    
O4       O      0.137350000000     0.635566666667     0.540110000000    -1.52164    
O5       O      0.054310000000     0.628886666667     0.533526666667    -1.36353    
C1       C      0.142557500000     0.551003333333     0.622060000000     0.791146   
C2       C      0.111390000000     0.578346666667     0.592656666667    -0.135334   
C3       C      0.136055000000     0.590693333333     0.575396666667    -0.354682   
C4       C      0.105327500000     0.619670000000     0.546533333333     1.23159    
H2       H      0.067580000000     0.589276666667     0.585646666667     0.0362289  
H3       H      0.180570000000     0.580710000000     0.582793333333     0.0980796  
H1       H      0.230737500000     0.508526666667     0.376886666667     0.344656   
O1       O      0.045030000000     0.660896666667     0.480050000000    -2.2021     
O2       O      0.061762500000     0.366616666667     0.538636666667    -1.15591    
O3       O      0.134610000000     0.377076666667     0.528126666667    -1.30642    
O4       O      0.112650000000     0.468900000000     0.626556666667    -1.52734    
O5       O      0.195690000000     0.462220000000     0.633140000000    -1.37933    
C1       C      0.107442500000     0.384336666667     0.544606666667     0.783361   
C2       C      0.138610000000     0.411680000000     0.574010000000    -0.131043   
C3       C      0.113945000000     0.424026666667     0.591270000000    -0.359077   
C4       C      0.144672500000     0.453003333333     0.620133333333     1.24161    
H2       H      0.182420000000     0.422610000000     0.581020000000     0.0396448  
H3       H      0.069430000000     0.414043333333     0.583873333333     0.0948515  
H1       H      0.019262500000     0.341860000000     0.456446666667     0.336875   
Al1      Al     0.125000000000     0.500000000000     0.666666666667     5.87815    
Al2      Al     0.000000000000     0.500000000000     0.666666666667     5.14267    
O1       O      0.045030000000     0.505770000000     0.980050000000    -2.16206    
O2       O      0.061762500000     0.466716666667     0.705303333333    -1.15589    
O3       O      0.134610000000     0.456256666667     0.694793333333    -1.30638    
O4       O      0.112650000000     0.364433333333     0.793223333333    -1.52757    
O5       O      0.195690000000     0.371113333333     0.799806666667    -1.37954    
C1       C      0.107442500000     0.448996666667     0.711273333333     0.783304   
C2       C      0.138610000000     0.421653333333     0.740676666667    -0.131015   
C3       C      0.113945000000     0.409306666667     0.757936666667    -0.359152   
C4       C      0.144672500000     0.380330000000     0.786800000000     1.24183    
H2       H      0.182420000000     0.410723333333     0.747686666667     0.0396143  
H3       H      0.069430000000     0.419290000000     0.750540000000     0.094867   
H1       H      0.019262500000     0.491473333333     0.956446666667     0.33344    
Al1      Al     0.125000000000     0.333333333333     0.833333333333     5.87924    
Al2      Al     0.000000000000     0.333333333333     0.833333333333     5.14456    
O1       O      0.204970000000     0.339103333333     0.853283333333    -2.22245    
O2       O      0.188237500000     0.633383333333     0.794696666667    -1.17049    
O3       O      0.115390000000     0.622923333333     0.805206666667    -1.31107    
O4       O      0.137350000000     0.531100000000     0.706776666667    -1.52165    
O5       O      0.054310000000     0.537780000000     0.700193333333    -1.36357    
C1       C      0.142557500000     0.615663333333     0.788726666667     0.791236   
C2       C      0.111390000000     0.588320000000     0.759323333333    -0.135376   
C3       C      0.136055000000     0.575973333333     0.742063333333    -0.35468    
C4       C      0.105327500000     0.546996666667     0.713200000000     1.23159    
H2       H      0.067580000000     0.577390000000     0.752313333333     0.036245   
H3       H      0.180570000000     0.585956666667     0.749460000000     0.0980533  
H1       H      0.230737500000     0.658140000000     0.876886666667     0.345406   
O1       O      0.204970000000     0.494230000000     0.686616666667    -2.2222     
O2       O      0.188237500000     0.533283333333     0.961363333333    -1.15022    
O3       O      0.115390000000     0.543743333333     0.971873333333    -1.28767    
O4       O      0.137350000000     0.635566666667     0.873443333333    -1.52139    
O5       O      0.054310000000     0.628886666667     0.866860000000    -1.36369    
C1       C      0.142557500000     0.551003333333     0.955393333333     0.781747   
C2       C      0.111390000000     0.578346666667     0.925990000000    -0.130494   
C3       C      0.136055000000     0.590693333333     0.908730000000    -0.355898   
C4       C      0.105327500000     0.619670000000     0.879866666667     1.23271    
H2       H      0.067580000000     0.589276666667     0.918980000000     0.0361766  
H3       H      0.180570000000     0.580710000000     0.916126666667     0.0995995  
H1       H      0.230737500000     0.508526666667     0.710220000000     0.344612   
O1       O      0.045030000000     0.660896666667     0.813383333333    -2.20259    
O2       O      0.061762500000     0.366616666667     0.871970000000    -1.15589    
O3       O      0.134610000000     0.377076666667     0.861460000000    -1.30644    
O4       O      0.112650000000     0.468900000000     0.959890000000    -1.5022     
O5       O      0.195690000000     0.462220000000     0.966473333333    -1.35512    
C1       C      0.107442500000     0.384336666667     0.877940000000     0.784847   
C2       C      0.138610000000     0.411680000000     0.907343333333    -0.133438   
C3       C      0.113945000000     0.424026666667     0.924603333333    -0.351725   
C4       C      0.144672500000     0.453003333333     0.953466666667     1.226      
H2       H      0.182420000000     0.422610000000     0.914353333333     0.0417081  
H3       H      0.069430000000     0.414043333333     0.917206666667     0.0945417  
H1       H      0.019262500000     0.341860000000     0.789780000000     0.336878   
Al1      Al     0.125000000000     0.833333333333     0.000000000000     5.78548    
Al2      Al     0.000000000000     0.833333333333     0.000000000000     5.06076    
O1       O      0.045030000000     0.839103333333     0.313383333333    -2.20229    
O2       O      0.061762500000     0.800050000000     0.038636666667    -1.14326    
O3       O      0.134610000000     0.789590000000     0.028126666667    -1.29273    
O4       O      0.112650000000     0.697766666667     0.126556666667    -1.52785    
O5       O      0.195690000000     0.704446666667     0.133140000000    -1.3797     
C1       C      0.107442500000     0.782330000000     0.044606666667     0.773642   
C2       C      0.138610000000     0.754986666667     0.074010000000    -0.128282   
C3       C      0.113945000000     0.742640000000     0.091270000000    -0.360933   
C4       C      0.144672500000     0.713663333333     0.120133333333     1.24219    
H2       H      0.182420000000     0.744056666667     0.081020000000     0.0383999  
H3       H      0.069430000000     0.752623333333     0.083873333333     0.0950316  
H1       H      0.019262500000     0.824806666667     0.289780000000     0.336967   
Al1      Al     0.125000000000     0.666666666667     0.166666666667     5.8785     
Al2      Al     0.000000000000     0.666666666667     0.166666666667     5.1439     
O1       O      0.204970000000     0.672436666667     0.186616666667    -2.22227    
O2       O      0.188237500000     0.966716666667     0.128030000000    -1.14951    
O3       O      0.115390000000     0.956256666667     0.138540000000    -1.28991    
O4       O      0.137350000000     0.864433333333     0.040110000000    -1.50432    
O5       O      0.054310000000     0.871113333333     0.033526666667    -1.34915    
C1       C      0.142557500000     0.948996666667     0.122060000000     0.782672   
C2       C      0.111390000000     0.921653333333     0.092656666667    -0.133058   
C3       C      0.136055000000     0.909306666667     0.075396666667    -0.351472   
C4       C      0.105327500000     0.880330000000     0.046533333333     1.21792    
H2       H      0.067580000000     0.910723333333     0.085646666667     0.0365789  
H3       H      0.180570000000     0.919290000000     0.082793333333     0.0982343  
H1       H      0.230737500000     0.991473333333     0.210220000000     0.352963   
O1       O      0.204970000000     0.827563333333     0.019950000000    -2.19561    
O2       O      0.188237500000     0.866616666667     0.294696666667    -1.17043    
O3       O      0.115390000000     0.877076666667     0.305206666667    -1.31058    
O4       O      0.137350000000     0.968900000000     0.206776666667    -1.4965     
O5       O      0.054310000000     0.962220000000     0.200193333333    -1.3416     
C1       C      0.142557500000     0.884336666667     0.288726666667     0.792833   
C2       C      0.111390000000     0.911680000000     0.259323333333    -0.137602   
C3       C      0.136055000000     0.924026666667     0.242063333333    -0.347432   
C4       C      0.105327500000     0.953003333333     0.213200000000     1.21556    
H2       H      0.067580000000     0.922610000000     0.252313333333     0.0384419  
H3       H      0.180570000000     0.914043333333     0.249460000000     0.0974385  
H1       H      0.230737500000     0.841860000000     0.043553333333     0.342268   
O1       O      0.045030000000     0.994230000000     0.146716666667    -2.15479    
O2       O      0.061762500000     0.699950000000     0.205303333333    -1.156      
O3       O      0.134610000000     0.710410000000     0.194793333333    -1.30635    
O4       O      0.112650000000     0.802233333333     0.293223333333    -1.52749    
O5       O      0.195690000000     0.795553333333     0.299806666667    -1.37955    
C1       C      0.107442500000     0.717670000000     0.211273333333     0.783455   
C2       C      0.138610000000     0.745013333333     0.240676666667    -0.130974   
C3       C      0.113945000000     0.757360000000     0.257936666667    -0.359069   
C4       C      0.144672500000     0.786336666667     0.286800000000     1.2418     
H2       H      0.182420000000     0.755943333333     0.247686666667     0.0397004  
H3       H      0.069430000000     0.747376666667     0.250540000000     0.0949343  
H1       H      0.019262500000     0.675193333333     0.123113333333     0.336509   
Al1      Al     0.125000000000     0.833333333333     0.333333333333     5.87907    
Al2      Al     0.000000000000     0.833333333333     0.333333333333     5.1439     
O1       O      0.045030000000     0.839103333333     0.646716666667    -2.20221    
O2       O      0.061762500000     0.800050000000     0.371970000000    -1.15614    
O3       O      0.134610000000     0.789590000000     0.361460000000    -1.30657    
O4       O      0.112650000000     0.697766666667     0.459890000000    -1.52734    
O5       O      0.195690000000     0.704446666667     0.466473333333    -1.37934    
C1       C      0.107442500000     0.782330000000     0.377940000000     0.783434   
C2       C      0.138610000000     0.754986666667     0.407343333333    -0.131092   
C3       C      0.113945000000     0.742640000000     0.424603333333    -0.359068   
C4       C      0.144672500000     0.713663333333     0.453466666667     1.2416     
H2       H      0.182420000000     0.744056666667     0.414353333333     0.0396425  
H3       H      0.069430000000     0.752623333333     0.417206666667     0.0948371  
H1       H      0.019262500000     0.824806666667     0.623113333333     0.336846   
Al1      Al     0.125000000000     0.666666666667     0.500000000000     5.87812    
Al2      Al     0.000000000000     0.666666666667     0.500000000000     5.14241    
O1       O      0.204970000000     0.672436666667     0.519950000000    -2.2222     
O2       O      0.188237500000     0.966716666667     0.461363333333    -1.14893    
O3       O      0.115390000000     0.956256666667     0.471873333333    -1.28963    
O4       O      0.137350000000     0.864433333333     0.373443333333    -1.52173    
O5       O      0.054310000000     0.871113333333     0.366860000000    -1.3635     
C1       C      0.142557500000     0.948996666667     0.455393333333     0.781871   
C2       C      0.111390000000     0.921653333333     0.425990000000    -0.130388   
C3       C      0.136055000000     0.909306666667     0.408730000000    -0.355893   
C4       C      0.105327500000     0.880330000000     0.379866666667     1.23293    
H2       H      0.067580000000     0.910723333333     0.418980000000     0.0359513  
H3       H      0.180570000000     0.919290000000     0.416126666667     0.0997992  
H1       H      0.230737500000     0.991473333333     0.543553333333     0.352888   
O1       O      0.204970000000     0.827563333333     0.353283333333    -2.22256    
O2       O      0.188237500000     0.866616666667     0.628030000000    -1.17045    
O3       O      0.115390000000     0.877076666667     0.638540000000    -1.3106     
O4       O      0.137350000000     0.968900000000     0.540110000000    -1.49648    
O5       O      0.054310000000     0.962220000000     0.533526666667    -1.34148    
C1       C      0.142557500000     0.884336666667     0.622060000000     0.792736   
C2       C      0.111390000000     0.911680000000     0.592656666667    -0.137707   
C3       C      0.136055000000     0.924026666667     0.575396666667    -0.347505   
C4       C      0.105327500000     0.953003333333     0.546533333333     1.21535    
H2       H      0.067580000000     0.922610000000     0.585646666667     0.0383333  
H3       H      0.180570000000     0.914043333333     0.582793333333     0.0973371  
H1       H      0.230737500000     0.841860000000     0.376886666667     0.344858   
O1       O      0.045030000000     0.994230000000     0.480050000000    -2.15453    
O2       O      0.061762500000     0.699950000000     0.538636666667    -1.1559     
O3       O      0.134610000000     0.710410000000     0.528126666667    -1.30639    
O4       O      0.112650000000     0.802233333333     0.626556666667    -1.52751    
O5       O      0.195690000000     0.795553333333     0.633140000000    -1.37955    
C1       C      0.107442500000     0.717670000000     0.544606666667     0.783281   
C2       C      0.138610000000     0.745013333333     0.574010000000    -0.131054   
C3       C      0.113945000000     0.757360000000     0.591270000000    -0.359169   
C4       C      0.144672500000     0.786336666667     0.620133333333     1.24169    
H2       H      0.182420000000     0.755943333333     0.581020000000     0.0396012  
H3       H      0.069430000000     0.747376666667     0.583873333333     0.0948193  
H1       H      0.019262500000     0.675193333333     0.456446666667     0.336814   
Al1      Al     0.125000000000     0.833333333333     0.666666666667     5.87867    
Al2      Al     0.000000000000     0.833333333333     0.666666666667     5.14355    
O1       O      0.045030000000     0.839103333333     0.980050000000    -2.16211    
O2       O      0.061762500000     0.800050000000     0.705303333333    -1.15611    
O3       O      0.134610000000     0.789590000000     0.694793333333    -1.30656    
O4       O      0.112650000000     0.697766666667     0.793223333333    -1.52754    
O5       O      0.195690000000     0.704446666667     0.799806666667    -1.37951    
C1       C      0.107442500000     0.782330000000     0.711273333333     0.78334    
C2       C      0.138610000000     0.754986666667     0.740676666667    -0.131098   
C3       C      0.113945000000     0.742640000000     0.757936666667    -0.359167   
C4       C      0.144672500000     0.713663333333     0.786800000000     1.24173    
H2       H      0.182420000000     0.744056666667     0.747686666667     0.0395777  
H3       H      0.069430000000     0.752623333333     0.750540000000     0.0948176  
H1       H      0.019262500000     0.824806666667     0.956446666667     0.333465   
Al1      Al     0.125000000000     0.666666666667     0.833333333333     5.87885    
Al2      Al     0.000000000000     0.666666666667     0.833333333333     5.14417    
O1       O      0.204970000000     0.672436666667     0.853283333333    -2.22235    
O2       O      0.188237500000     0.966716666667     0.794696666667    -1.14911    
O3       O      0.115390000000     0.956256666667     0.805206666667    -1.2898     
O4       O      0.137350000000     0.864433333333     0.706776666667    -1.52169    
O5       O      0.054310000000     0.871113333333     0.700193333333    -1.36347    
C1       C      0.142557500000     0.948996666667     0.788726666667     0.781945   
C2       C      0.111390000000     0.921653333333     0.759323333333    -0.130474   
C3       C      0.136055000000     0.909306666667     0.742063333333    -0.355904   
C4       C      0.105327500000     0.880330000000     0.713200000000     1.23283    
H2       H      0.067580000000     0.910723333333     0.752313333333     0.0359327  
H3       H      0.180570000000     0.919290000000     0.749460000000     0.0997393  
H1       H      0.230737500000     0.991473333333     0.876886666667     0.353694   
O1       O      0.204970000000     0.827563333333     0.686616666667    -2.22246    
O2       O      0.188237500000     0.866616666667     0.961363333333    -1.15034    
O3       O      0.115390000000     0.877076666667     0.971873333333    -1.28733    
O4       O      0.137350000000     0.968900000000     0.873443333333    -1.49623    
O5       O      0.054310000000     0.962220000000     0.866860000000    -1.34165    
C1       C      0.142557500000     0.884336666667     0.955393333333     0.783338   
C2       C      0.111390000000     0.911680000000     0.925990000000    -0.132868   
C3       C      0.136055000000     0.924026666667     0.908730000000    -0.348722   
C4       C      0.105327500000     0.953003333333     0.879866666667     1.21648    
H2       H      0.067580000000     0.922610000000     0.918980000000     0.0382804  
H3       H      0.180570000000     0.914043333333     0.916126666667     0.0988567  
H1       H      0.230737500000     0.841860000000     0.710220000000     0.344814   
O1       O      0.045030000000     0.994230000000     0.813383333333    -2.15503    
O2       O      0.061762500000     0.699950000000     0.871970000000    -1.15587    
O3       O      0.134610000000     0.710410000000     0.861460000000    -1.30642    
O4       O      0.112650000000     0.802233333333     0.959890000000    -1.50237    
O5       O      0.195690000000     0.795553333333     0.966473333333    -1.35535    
C1       C      0.107442500000     0.717670000000     0.877940000000     0.784767   
C2       C      0.138610000000     0.745013333333     0.907343333333    -0.133448   
C3       C      0.113945000000     0.757360000000     0.924603333333    -0.351818   
C4       C      0.144672500000     0.786336666667     0.953466666667     1.22608    
H2       H      0.182420000000     0.755943333333     0.914353333333     0.0416642  
H3       H      0.069430000000     0.747376666667     0.917206666667     0.0945096  
H1       H      0.019262500000     0.675193333333     0.789780000000     0.336817   
Al1      Al     0.375000000000     0.166666666667     0.000000000000     5.79898    
Al2      Al     0.250000000000     0.166666666667     0.000000000000     5.18816    
O1       O      0.295030000000     0.172436666667     0.313383333333    -2.225      
O2       O      0.311762500000     0.133383333333     0.038636666667    -1.1573     
O3       O      0.384610000000     0.122923333333     0.028126666667    -1.29712    
O4       O      0.362650000000     0.031100000000     0.126556666667    -1.51138    
O5       O      0.445690000000     0.037780000000     0.133140000000    -1.36402    
C1       C      0.357442500000     0.115663333333     0.044606666667     0.782335   
C2       C      0.388610000000     0.088320000000     0.074010000000    -0.13233    
C3       C      0.363945000000     0.075973333333     0.091270000000    -0.354492   
C4       C      0.394672500000     0.046996666667     0.120133333333     1.22921    
H2       H      0.432420000000     0.077390000000     0.081020000000     0.0395899  
H3       H      0.319430000000     0.085956666667     0.083873333333     0.0979065  
H1       H      0.269262500000     0.158140000000     0.289780000000     0.34501    
Al1      Al     0.375000000000     0.000000000000     0.166666666667     5.80117    
Al2      Al     0.250000000000     0.000000000000     0.166666666667     5.1901     
O1       O      0.454970000000     0.005770000000     0.186616666667    -2.20657    
O2       O      0.438237500000     0.300050000000     0.128030000000    -1.17098    
O3       O      0.365390000000     0.289590000000     0.138540000000    -1.3109     
O4       O      0.387350000000     0.197766666667     0.040110000000    -1.50986    
O5       O      0.304310000000     0.204446666667     0.033526666667    -1.36458    
C1       C      0.392557500000     0.282330000000     0.122060000000     0.792658   
C2       C      0.361390000000     0.254986666667     0.092656666667    -0.135298   
C3       C      0.386055000000     0.242640000000     0.075396666667    -0.352303   
C4       C      0.355327500000     0.213663333333     0.046533333333     1.22736    
H2       H      0.317580000000     0.244056666667     0.085646666667     0.0410191  
H3       H      0.430570000000     0.252623333333     0.082793333333     0.0974472  
H1       H      0.480737500000     0.324806666667     0.210220000000     0.345196   
O1       O      0.454970000000     0.160896666667     0.019950000000    -2.19824    
O2       O      0.438237500000     0.199950000000     0.294696666667    -1.17032    
O3       O      0.365390000000     0.210410000000     0.305206666667    -1.31062    
O4       O      0.387350000000     0.302233333333     0.206776666667    -1.52752    
O5       O      0.304310000000     0.295553333333     0.200193333333    -1.37933    
C1       C      0.392557500000     0.217670000000     0.288726666667     0.791918   
C2       C      0.361390000000     0.245013333333     0.259323333333    -0.132498   
C3       C      0.386055000000     0.257360000000     0.242063333333    -0.356754   
C4       C      0.355327500000     0.286336666667     0.213200000000     1.24274    
H2       H      0.317580000000     0.255943333333     0.252313333333     0.0404733  
H3       H      0.430570000000     0.247376666667     0.249460000000     0.099114   
H1       H      0.480737500000     0.175193333333     0.043553333333     0.342638   
O1       O      0.295030000000     0.327563333333     0.146716666667    -2.225      
O2       O      0.311762500000     0.033283333333     0.205303333333    -1.15888    
O3       O      0.384610000000     0.043743333333     0.194793333333    -1.29539    
O4       O      0.362650000000     0.135566666667     0.293223333333    -1.52788    
O5       O      0.445690000000     0.128886666667     0.299806666667    -1.38014    
C1       C      0.357442500000     0.051003333333     0.211273333333     0.782024   
C2       C      0.388610000000     0.078346666667     0.240676666667    -0.129861   
C3       C      0.363945000000     0.090693333333     0.257936666667    -0.358775   
C4       C      0.394672500000     0.119670000000     0.286800000000     1.24318    
H2       H      0.432420000000     0.089276666667     0.247686666667     0.0393503  
H3       H      0.319430000000     0.080710000000     0.250540000000     0.0989543  
H1       H      0.269262500000     0.008526666667     0.123113333333     0.330389   
Al1      Al     0.375000000000     0.166666666667     0.333333333333     5.89355    
Al2      Al     0.250000000000     0.166666666667     0.333333333333     5.2742     
O1       O      0.295030000000     0.172436666667     0.646716666667    -2.22491    
O2       O      0.311762500000     0.133383333333     0.371970000000    -1.17054    
O3       O      0.384610000000     0.122923333333     0.361460000000    -1.31114    
O4       O      0.362650000000     0.031100000000     0.459890000000    -1.51085    
O5       O      0.445690000000     0.037780000000     0.466473333333    -1.36365    
C1       C      0.357442500000     0.115663333333     0.377940000000     0.792351   
C2       C      0.388610000000     0.088320000000     0.407343333333    -0.135194   
C3       C      0.363945000000     0.075973333333     0.424603333333    -0.352574   
C4       C      0.394672500000     0.046996666667     0.453466666667     1.22863    
H2       H      0.432420000000     0.077390000000     0.414353333333     0.0408559  
H3       H      0.319430000000     0.085956666667     0.417206666667     0.0977645  
H1       H      0.269262500000     0.158140000000     0.623113333333     0.344914   
Al1      Al     0.375000000000     0.000000000000     0.500000000000     5.8009     
Al2      Al     0.250000000000     0.000000000000     0.500000000000     5.18963    
O1       O      0.454970000000     0.005770000000     0.519950000000    -2.20652    
O2       O      0.438237500000     0.300050000000     0.461363333333    -1.17039    
O3       O      0.365390000000     0.289590000000     0.471873333333    -1.31062    
O4       O      0.387350000000     0.197766666667     0.373443333333    -1.52751    
O5       O      0.304310000000     0.204446666667     0.366860000000    -1.37933    
C1       C      0.392557500000     0.282330000000     0.455393333333     0.791855   
C2       C      0.361390000000     0.254986666667     0.425990000000    -0.132563   
C3       C      0.386055000000     0.242640000000     0.408730000000    -0.356801   
C4       C      0.355327500000     0.213663333333     0.379866666667     1.24269    
H2       H      0.317580000000     0.244056666667     0.418980000000     0.0404397  
H3       H      0.430570000000     0.252623333333     0.416126666667     0.0990406  
H1       H      0.480737500000     0.324806666667     0.543553333333     0.345123   
O1       O      0.454970000000     0.160896666667     0.353283333333    -2.22539    
O2       O      0.438237500000     0.199950000000     0.628030000000    -1.17034    
O3       O      0.365390000000     0.210410000000     0.638540000000    -1.31063    
O4       O      0.387350000000     0.302233333333     0.540110000000    -1.52755    
O5       O      0.304310000000     0.295553333333     0.533526666667    -1.37934    
C1       C      0.392557500000     0.217670000000     0.622060000000     0.791821   
C2       C      0.361390000000     0.245013333333     0.592656666667    -0.132579   
C3       C      0.386055000000     0.257360000000     0.575396666667    -0.356847   
C4       C      0.355327500000     0.286336666667     0.546533333333     1.24263    
H2       H      0.317580000000     0.255943333333     0.585646666667     0.0403857  
H3       H      0.430570000000     0.247376666667     0.582793333333     0.099021   
H1       H      0.480737500000     0.175193333333     0.376886666667     0.345255   
O1       O      0.295030000000     0.327563333333     0.480050000000    -2.22492    
O2       O      0.311762500000     0.033283333333     0.538636666667    -1.1589     
O3       O      0.384610000000     0.043743333333     0.528126666667    -1.29547    
O4       O      0.362650000000     0.135566666667     0.626556666667    -1.52789    
O5       O      0.445690000000     0.128886666667     0.633140000000    -1.38013    
C1       C      0.357442500000     0.051003333333     0.544606666667     0.781921   
C2       C      0.388610000000     0.078346666667     0.574010000000    -0.129956   
C3       C      0.363945000000     0.090693333333     0.591270000000    -0.358855   
C4       C      0.394672500000     0.119670000000     0.620133333333     1.24307    
H2       H      0.432420000000     0.089276666667     0.581020000000     0.0392583  
H3       H      0.319430000000     0.080710000000     0.583873333333     0.0988626  
H1       H      0.269262500000     0.008526666667     0.456446666667     0.330781   
Al1      Al     0.375000000000     0.166666666667     0.666666666667     5.89316    
Al2      Al     0.250000000000     0.166666666667     0.666666666667     5.27382    
O1       O      0.295030000000     0.172436666667     0.980050000000    -2.18413    
O2       O      0.311762500000     0.133383333333     0.705303333333    -1.17051    
O3       O      0.384610000000     0.122923333333     0.694793333333    -1.31113    
O4       O      0.362650000000     0.031100000000     0.793223333333    -1.51104    
O5       O      0.445690000000     0.037780000000     0.799806666667    -1.36382    
C1       C      0.357442500000     0.115663333333     0.711273333333     0.79226    
C2       C      0.388610000000     0.088320000000     0.740676666667    -0.135202   
C3       C      0.363945000000     0.075973333333     0.757936666667    -0.35267    
C4       C      0.394672500000     0.046996666667     0.786800000000     1.22875    
H2       H      0.432420000000     0.077390000000     0.747686666667     0.040793   
H3       H      0.319430000000     0.085956666667     0.750540000000     0.0977355  
H1       H      0.269262500000     0.158140000000     0.956446666667     0.341398   
Al1      Al     0.375000000000     0.000000000000     0.833333333333     5.80153    
Al2      Al     0.250000000000     0.000000000000     0.833333333333     5.1903     
O1       O      0.454970000000     0.005770000000     0.853283333333    -2.20664    
O2       O      0.438237500000     0.300050000000     0.794696666667    -1.17057    
O3       O      0.365390000000     0.289590000000     0.805206666667    -1.31077    
O4       O      0.387350000000     0.197766666667     0.706776666667    -1.52747    
O5       O      0.304310000000     0.204446666667     0.700193333333    -1.3793     
C1       C      0.392557500000     0.282330000000     0.788726666667     0.791922   
C2       C      0.361390000000     0.254986666667     0.759323333333    -0.132646   
C3       C      0.386055000000     0.242640000000     0.742063333333    -0.356814   
C4       C      0.355327500000     0.213663333333     0.713200000000     1.24258    
H2       H      0.317580000000     0.244056666667     0.752313333333     0.0404095  
H3       H      0.430570000000     0.252623333333     0.749460000000     0.0989826  
H1       H      0.480737500000     0.324806666667     0.876886666667     0.345923   
O1       O      0.454970000000     0.160896666667     0.686616666667    -2.2253     
O2       O      0.438237500000     0.199950000000     0.961363333333    -1.15015    
O3       O      0.365390000000     0.210410000000     0.971873333333    -1.2872     
O4       O      0.387350000000     0.302233333333     0.873443333333    -1.52726    
O5       O      0.304310000000     0.295553333333     0.866860000000    -1.37938    
C1       C      0.392557500000     0.217670000000     0.955393333333     0.78235    
C2       C      0.361390000000     0.245013333333     0.925990000000    -0.12774    
C3       C      0.386055000000     0.257360000000     0.908730000000    -0.358058   
C4       C      0.355327500000     0.286336666667     0.879866666667     1.24367    
H2       H      0.317580000000     0.255943333333     0.918980000000     0.0402846  
H3       H      0.430570000000     0.247376666667     0.916126666667     0.100535   
H1       H      0.480737500000     0.175193333333     0.710220000000     0.345212   
O1       O      0.295030000000     0.327563333333     0.813383333333    -2.22522    
O2       O      0.311762500000     0.033283333333     0.871970000000    -1.15876    
O3       O      0.384610000000     0.043743333333     0.861460000000    -1.29546    
O4       O      0.362650000000     0.135566666667     0.959890000000    -1.50257    
O5       O      0.445690000000     0.128886666667     0.966473333333    -1.35584    
C1       C      0.357442500000     0.051003333333     0.877940000000     0.78335    
C2       C      0.388610000000     0.078346666667     0.907343333333    -0.132357   
C3       C      0.363945000000     0.090693333333     0.924603333333    -0.351485   
C4       C      0.394672500000     0.119670000000     0.953466666667     1.22735    
H2       H      0.432420000000     0.089276666667     0.914353333333     0.0413183  
H3       H      0.319430000000     0.080710000000     0.917206666667     0.0985053  
H1       H      0.269262500000     0.008526666667     0.789780000000     0.330745   
Al1      Al     0.375000000000     0.500000000000     0.000000000000     5.79864    
Al2      Al     0.250000000000     0.500000000000     0.000000000000     5.18793    
O1       O      0.295030000000     0.505770000000     0.313383333333    -2.22493    
O2       O      0.311762500000     0.466716666667     0.038636666667    -1.15695    
O3       O      0.384610000000     0.456256666667     0.028126666667    -1.29657    
O4       O      0.362650000000     0.364433333333     0.126556666667    -1.5282     
O5       O      0.445690000000     0.371113333333     0.133140000000    -1.38007    
C1       C      0.357442500000     0.448996666667     0.044606666667     0.781708   
C2       C      0.388610000000     0.421653333333     0.074010000000    -0.12967    
C3       C      0.363945000000     0.409306666667     0.091270000000    -0.358898   
C4       C      0.394672500000     0.380330000000     0.120133333333     1.24334    
H2       H      0.432420000000     0.410723333333     0.081020000000     0.0390995  
H3       H      0.319430000000     0.419290000000     0.083873333333     0.0991015  
H1       H      0.269262500000     0.491473333333     0.289780000000     0.344979   
Al1      Al     0.375000000000     0.333333333333     0.166666666667     5.89349    
Al2      Al     0.250000000000     0.333333333333     0.166666666667     5.27445    
O1       O      0.454970000000     0.339103333333     0.186616666667    -2.2253     
O2       O      0.438237500000     0.633383333333     0.128030000000    -1.17099    
O3       O      0.365390000000     0.622923333333     0.138540000000    -1.31093    
O4       O      0.387350000000     0.531100000000     0.040110000000    -1.50993    
O5       O      0.304310000000     0.537780000000     0.033526666667    -1.36464    
C1       C      0.392557500000     0.615663333333     0.122060000000     0.792546   
C2       C      0.361390000000     0.588320000000     0.092656666667    -0.135383   
C3       C      0.386055000000     0.575973333333     0.075396666667    -0.352412   
C4       C      0.355327500000     0.546996666667     0.046533333333     1.22726    
H2       H      0.317580000000     0.577390000000     0.085646666667     0.0409135  
H3       H      0.430570000000     0.585956666667     0.082793333333     0.0973582  
H1       H      0.480737500000     0.658140000000     0.210220000000     0.345122   
O1       O      0.454970000000     0.494230000000     0.019950000000    -2.19809    
O2       O      0.438237500000     0.533283333333     0.294696666667    -1.1704     
O3       O      0.365390000000     0.543743333333     0.305206666667    -1.31066    
O4       O      0.387350000000     0.635566666667     0.206776666667    -1.52751    
O5       O      0.304310000000     0.628886666667     0.200193333333    -1.37934    
C1       C      0.392557500000     0.551003333333     0.288726666667     0.791821   
C2       C      0.361390000000     0.578346666667     0.259323333333    -0.132602   
C3       C      0.386055000000     0.590693333333     0.242063333333    -0.356837   
C4       C      0.355327500000     0.619670000000     0.213200000000     1.24262    
H2       H      0.317580000000     0.589276666667     0.252313333333     0.040389   
H3       H      0.430570000000     0.580710000000     0.249460000000     0.0990138  
H1       H      0.480737500000     0.508526666667     0.043553333333     0.342489   
O1       O      0.295030000000     0.660896666667     0.146716666667    -2.22491    
O2       O      0.311762500000     0.366616666667     0.205303333333    -1.1702     
O3       O      0.384610000000     0.377076666667     0.194793333333    -1.31054    
O4       O      0.362650000000     0.468900000000     0.293223333333    -1.52763    
O5       O      0.445690000000     0.462220000000     0.299806666667    -1.37966    
C1       C      0.357442500000     0.384336666667     0.211273333333     0.791809   
C2       C      0.388610000000     0.411680000000     0.240676666667    -0.132478   
C3       C      0.363945000000     0.424026666667     0.257936666667    -0.356919   
C4       C      0.394672500000     0.453003333333     0.286800000000     1.24278    
H2       H      0.432420000000     0.422610000000     0.247686666667     0.0404257  
H3       H      0.319430000000     0.414043333333     0.250540000000     0.0990199  
H1       H      0.269262500000     0.341860000000     0.123113333333     0.344545   
Al1      Al     0.375000000000     0.500000000000     0.333333333333     5.89323    
Al2      Al     0.250000000000     0.500000000000     0.333333333333     5.27398    
O1       O      0.295030000000     0.505770000000     0.646716666667    -2.22484    
O2       O      0.311762500000     0.466716666667     0.371970000000    -1.17019    
O3       O      0.384610000000     0.456256666667     0.361460000000    -1.31059    
O4       O      0.362650000000     0.364433333333     0.459890000000    -1.52767    
O5       O      0.445690000000     0.371113333333     0.466473333333    -1.37971    
C1       C      0.357442500000     0.448996666667     0.377940000000     0.791726   
C2       C      0.388610000000     0.421653333333     0.407343333333    -0.132535   
C3       C      0.363945000000     0.409306666667     0.424603333333    -0.356981   
C4       C      0.394672500000     0.380330000000     0.453466666667     1.24276    
H2       H      0.432420000000     0.410723333333     0.414353333333     0.0403658  
H3       H      0.319430000000     0.419290000000     0.417206666667     0.0989598  
H1       H      0.269262500000     0.491473333333     0.623113333333     0.344883   
Al1      Al     0.375000000000     0.333333333333     0.500000000000     5.89324    
Al2      Al     0.250000000000     0.333333333333     0.500000000000     5.274      
O1       O      0.454970000000     0.339103333333     0.519950000000    -2.22526    
O2       O      0.438237500000     0.633383333333     0.461363333333    -1.17041    
O3       O      0.365390000000     0.622923333333     0.471873333333    -1.31064    
O4       O      0.387350000000     0.531100000000     0.373443333333    -1.52758    
O5       O      0.304310000000     0.537780000000     0.366860000000    -1.37939    
C1       C      0.392557500000     0.615663333333     0.455393333333     0.791743   
C2       C      0.361390000000     0.588320000000     0.425990000000    -0.132647   
C3       C      0.386055000000     0.575973333333     0.408730000000    -0.356912   
C4       C      0.355327500000     0.546996666667     0.379866666667     1.24259    
H2       H      0.317580000000     0.577390000000     0.418980000000     0.040334   
H3       H      0.430570000000     0.585956666667     0.416126666667     0.0989518  
H1       H      0.480737500000     0.658140000000     0.543553333333     0.34505    
O1       O      0.454970000000     0.494230000000     0.353283333333    -2.22525    
O2       O      0.438237500000     0.533283333333     0.628030000000    -1.17042    
O3       O      0.365390000000     0.543743333333     0.638540000000    -1.31068    
O4       O      0.387350000000     0.635566666667     0.540110000000    -1.52755    
O5       O      0.304310000000     0.628886666667     0.533526666667    -1.37935    
C1       C      0.392557500000     0.551003333333     0.622060000000     0.791724   
C2       C      0.361390000000     0.578346666667     0.592656666667    -0.132684   
C3       C      0.386055000000     0.590693333333     0.575396666667    -0.35693    
C4       C      0.355327500000     0.619670000000     0.546533333333     1.24251    
H2       H      0.317580000000     0.589276666667     0.585646666667     0.0403014  
H3       H      0.430570000000     0.580710000000     0.582793333333     0.0989208  
H1       H      0.480737500000     0.508526666667     0.376886666667     0.345107   
O1       O      0.295030000000     0.660896666667     0.480050000000    -2.22483    
O2       O      0.311762500000     0.366616666667     0.538636666667    -1.17022    
O3       O      0.384610000000     0.377076666667     0.528126666667    -1.31062    
O4       O      0.362650000000     0.468900000000     0.626556666667    -1.52763    
O5       O      0.445690000000     0.462220000000     0.633140000000    -1.37966    
C1       C      0.357442500000     0.384336666667     0.544606666667     0.791707   
C2       C      0.388610000000     0.411680000000     0.574010000000    -0.132573   
C3       C      0.363945000000     0.424026666667     0.591270000000    -0.356998   
C4       C      0.394672500000     0.453003333333     0.620133333333     1.24267    
H2       H      0.432420000000     0.422610000000     0.581020000000     0.0403339  
H3       H      0.319430000000     0.414043333333     0.583873333333     0.0989281  
H1       H      0.269262500000     0.341860000000     0.456446666667     0.34494    
Al1      Al     0.375000000000     0.500000000000     0.666666666667     5.89284    
Al2      Al     0.250000000000     0.500000000000     0.666666666667     5.2736     
O1       O      0.295030000000     0.505770000000     0.980050000000    -2.18406    
O2       O      0.311762500000     0.466716666667     0.705303333333    -1.17017    
O3       O      0.384610000000     0.456256666667     0.694793333333    -1.31058    
O4       O      0.362650000000     0.364433333333     0.793223333333    -1.52786    
O5       O      0.445690000000     0.371113333333     0.799806666667    -1.37987    
C1       C      0.357442500000     0.448996666667     0.711273333333     0.791636   
C2       C      0.388610000000     0.421653333333     0.740676666667    -0.132543   
C3       C      0.363945000000     0.409306666667     0.757936666667    -0.357075   
C4       C      0.394672500000     0.380330000000     0.786800000000     1.24288    
H2       H      0.432420000000     0.410723333333     0.747686666667     0.0403031  
H3       H      0.319430000000     0.419290000000     0.750540000000     0.0989307  
H1       H      0.269262500000     0.491473333333     0.956446666667     0.341367   
Al1      Al     0.375000000000     0.333333333333     0.833333333333     5.89385    
Al2      Al     0.250000000000     0.333333333333     0.833333333333     5.27466    
O1       O      0.454970000000     0.339103333333     0.853283333333    -2.22538    
O2       O      0.438237500000     0.633383333333     0.794696666667    -1.17058    
O3       O      0.365390000000     0.622923333333     0.805206666667    -1.3108     
O4       O      0.387350000000     0.531100000000     0.706776666667    -1.52754    
O5       O      0.304310000000     0.537780000000     0.700193333333    -1.37936    
C1       C      0.392557500000     0.615663333333     0.788726666667     0.79181    
C2       C      0.361390000000     0.588320000000     0.759323333333    -0.13273    
C3       C      0.386055000000     0.575973333333     0.742063333333    -0.356924   
C4       C      0.355327500000     0.546996666667     0.713200000000     1.24249    
H2       H      0.317580000000     0.577390000000     0.752313333333     0.0403037  
H3       H      0.430570000000     0.585956666667     0.749460000000     0.0988938  
H1       H      0.480737500000     0.658140000000     0.876886666667     0.345849   
O1       O      0.454970000000     0.494230000000     0.686616666667    -2.22515    
O2       O      0.438237500000     0.533283333333     0.961363333333    -1.15023    
O3       O      0.365390000000     0.543743333333     0.971873333333    -1.28725    
O4       O      0.387350000000     0.635566666667     0.873443333333    -1.52725    
O5       O      0.304310000000     0.628886666667     0.866860000000    -1.37939    
C1       C      0.392557500000     0.551003333333     0.955393333333     0.782252   
C2       C      0.361390000000     0.578346666667     0.925990000000    -0.127844   
C3       C      0.386055000000     0.590693333333     0.908730000000    -0.358141   
C4       C      0.355327500000     0.619670000000     0.879866666667     1.24354    
H2       H      0.317580000000     0.589276666667     0.918980000000     0.0402001  
H3       H      0.430570000000     0.580710000000     0.916126666667     0.100435   
H1       H      0.480737500000     0.508526666667     0.710220000000     0.345064   
O1       O      0.295030000000     0.660896666667     0.813383333333    -2.22513    
O2       O      0.311762500000     0.366616666667     0.871970000000    -1.17008    
O3       O      0.384610000000     0.377076666667     0.861460000000    -1.31061    
O4       O      0.362650000000     0.468900000000     0.959890000000    -1.50231    
O5       O      0.445690000000     0.462220000000     0.966473333333    -1.35536    
C1       C      0.357442500000     0.384336666667     0.877940000000     0.793135   
C2       C      0.388610000000     0.411680000000     0.907343333333    -0.134974   
C3       C      0.363945000000     0.424026666667     0.924603333333    -0.349627   
C4       C      0.394672500000     0.453003333333     0.953466666667     1.22694    
H2       H      0.432420000000     0.422610000000     0.914353333333     0.042394   
H3       H      0.319430000000     0.414043333333     0.917206666667     0.0985707  
H1       H      0.269262500000     0.341860000000     0.789780000000     0.344902   
Al1      Al     0.375000000000     0.833333333333     0.000000000000     5.79917    
Al2      Al     0.250000000000     0.833333333333     0.000000000000     5.18879    
O1       O      0.295030000000     0.839103333333     0.313383333333    -2.22498    
O2       O      0.311762500000     0.800050000000     0.038636666667    -1.15718    
O3       O      0.384610000000     0.789590000000     0.028126666667    -1.29674    
O4       O      0.362650000000     0.697766666667     0.126556666667    -1.52817    
O5       O      0.445690000000     0.704446666667     0.133140000000    -1.38004    
C1       C      0.357442500000     0.782330000000     0.044606666667     0.781744   
C2       C      0.388610000000     0.754986666667     0.074010000000    -0.129753   
C3       C      0.363945000000     0.742640000000     0.091270000000    -0.358913   
C4       C      0.394672500000     0.713663333333     0.120133333333     1.24325    
H2       H      0.432420000000     0.744056666667     0.081020000000     0.0390629  
H3       H      0.319430000000     0.752623333333     0.083873333333     0.0990516  
H1       H      0.269262500000     0.824806666667     0.289780000000     0.345002   
Al1      Al     0.375000000000     0.666666666667     0.166666666667     5.89309    
Al2      Al     0.250000000000     0.666666666667     0.166666666667     5.27406    
O1       O      0.454970000000     0.672436666667     0.186616666667    -2.2252     
O2       O      0.438237500000     0.966716666667     0.128030000000    -1.14961    
O3       O      0.365390000000     0.956256666667     0.138540000000    -1.28965    
O4       O      0.387350000000     0.864433333333     0.040110000000    -1.50997    
O5       O      0.304310000000     0.871113333333     0.033526666667    -1.36455    
C1       C      0.392557500000     0.948996666667     0.122060000000     0.783253   
C2       C      0.361390000000     0.921653333333     0.092656666667    -0.13048    
C3       C      0.386055000000     0.909306666667     0.075396666667    -0.353637   
C4       C      0.355327500000     0.880330000000     0.046533333333     1.2285     
H2       H      0.317580000000     0.910723333333     0.085646666667     0.0406003  
H3       H      0.430570000000     0.919290000000     0.082793333333     0.0990443  
H1       H      0.480737500000     0.991473333333     0.210220000000     0.353412   
O1       O      0.454970000000     0.827563333333     0.019950000000    -2.19835    
O2       O      0.438237500000     0.866616666667     0.294696666667    -1.17053    
O3       O      0.365390000000     0.877076666667     0.305206666667    -1.31033    
O4       O      0.387350000000     0.968900000000     0.206776666667    -1.50234    
O5       O      0.304310000000     0.962220000000     0.200193333333    -1.35728    
C1       C      0.392557500000     0.884336666667     0.288726666667     0.793412   
C2       C      0.361390000000     0.911680000000     0.259323333333    -0.134977   
C3       C      0.386055000000     0.924026666667     0.242063333333    -0.349658   
C4       C      0.355327500000     0.953003333333     0.213200000000     1.22638    
H2       H      0.317580000000     0.922610000000     0.252313333333     0.0424929  
H3       H      0.430570000000     0.914043333333     0.249460000000     0.0982707  
H1       H      0.480737500000     0.841860000000     0.043553333333     0.342692   
O1       O      0.295030000000     0.994230000000     0.146716666667    -2.17732    
O2       O      0.311762500000     0.699950000000     0.205303333333    -1.17018    
O3       O      0.384610000000     0.710410000000     0.194793333333    -1.31052    
O4       O      0.362650000000     0.802233333333     0.293223333333    -1.5278     
O5       O      0.445690000000     0.795553333333     0.299806666667    -1.37989    
C1       C      0.357442500000     0.717670000000     0.211273333333     0.791728   
C2       C      0.388610000000     0.745013333333     0.240676666667    -0.132489   
C3       C      0.363945000000     0.757360000000     0.257936666667    -0.357011   
C4       C      0.394672500000     0.786336666667     0.286800000000     1.24286    
H2       H      0.432420000000     0.755943333333     0.247686666667     0.040382   
H3       H      0.319430000000     0.747376666667     0.250540000000     0.0989874  
H1       H      0.269262500000     0.675193333333     0.123113333333     0.344484   
Al1      Al     0.375000000000     0.833333333333     0.333333333333     5.89375    
Al2      Al     0.250000000000     0.833333333333     0.333333333333     5.27483    
O1       O      0.295030000000     0.839103333333     0.646716666667    -2.22489    
O2       O      0.311762500000     0.800050000000     0.371970000000    -1.17041    
O3       O      0.384610000000     0.789590000000     0.361460000000    -1.31076    
O4       O      0.362650000000     0.697766666667     0.459890000000    -1.52764    
O5       O      0.445690000000     0.704446666667     0.466473333333    -1.37967    
C1       C      0.357442500000     0.782330000000     0.377940000000     0.79176    
C2       C      0.388610000000     0.754986666667     0.407343333333    -0.132617   
C3       C      0.363945000000     0.742640000000     0.424603333333    -0.356995   
C4       C      0.394672500000     0.713663333333     0.453466666667     1.24266    
H2       H      0.432420000000     0.744056666667     0.414353333333     0.0403291  
H3       H      0.319430000000     0.752623333333     0.417206666667     0.09891    
H1       H      0.269262500000     0.824806666667     0.623113333333     0.344906   
Al1      Al     0.375000000000     0.666666666667     0.500000000000     5.89284    
Al2      Al     0.250000000000     0.666666666667     0.500000000000     5.27361    
O1       O      0.454970000000     0.672436666667     0.519950000000    -2.22516    
O2       O      0.438237500000     0.966716666667     0.461363333333    -1.14902    
O3       O      0.365390000000     0.956256666667     0.471873333333    -1.28936    
O4       O      0.387350000000     0.864433333333     0.373443333333    -1.52762    
O5       O      0.304310000000     0.871113333333     0.366860000000    -1.37929    
C1       C      0.392557500000     0.948996666667     0.455393333333     0.782449   
C2       C      0.361390000000     0.921653333333     0.425990000000    -0.127744   
C3       C      0.386055000000     0.909306666667     0.408730000000    -0.358136   
C4       C      0.355327500000     0.880330000000     0.379866666667     1.24383    
H2       H      0.317580000000     0.910723333333     0.418980000000     0.0400208  
H3       H      0.430570000000     0.919290000000     0.416126666667     0.100638   
H1       H      0.480737500000     0.991473333333     0.543553333333     0.35334    
O1       O      0.454970000000     0.827563333333     0.353283333333    -2.22551    
O2       O      0.438237500000     0.866616666667     0.628030000000    -1.17055    
O3       O      0.365390000000     0.877076666667     0.638540000000    -1.31034    
O4       O      0.387350000000     0.968900000000     0.540110000000    -1.50237    
O5       O      0.304310000000     0.962220000000     0.533526666667    -1.35729    
C1       C      0.392557500000     0.884336666667     0.622060000000     0.793315   
C2       C      0.361390000000     0.911680000000     0.592656666667    -0.13506    
C3       C      0.386055000000     0.924026666667     0.575396666667    -0.34975    
C4       C      0.355327500000     0.953003333333     0.546533333333     1.22626    
H2       H      0.317580000000     0.922610000000     0.585646666667     0.0424055  
H3       H      0.430570000000     0.914043333333     0.582793333333     0.0981775  
H1       H      0.480737500000     0.841860000000     0.376886666667     0.34531    
O1       O      0.295030000000     0.994230000000     0.480050000000    -2.17723    
O2       O      0.311762500000     0.699950000000     0.538636666667    -1.1702     
O3       O      0.384610000000     0.710410000000     0.528126666667    -1.31059    
O4       O      0.362650000000     0.802233333333     0.626556666667    -1.5278     
O5       O      0.445690000000     0.795553333333     0.633140000000    -1.37989    
C1       C      0.357442500000     0.717670000000     0.544606666667     0.791627   
C2       C      0.388610000000     0.745013333333     0.574010000000    -0.132583   
C3       C      0.363945000000     0.757360000000     0.591270000000    -0.35709    
C4       C      0.394672500000     0.786336666667     0.620133333333     1.24275    
H2       H      0.432420000000     0.755943333333     0.581020000000     0.0402902  
H3       H      0.319430000000     0.747376666667     0.583873333333     0.0988956  
H1       H      0.269262500000     0.675193333333     0.456446666667     0.344878   
Al1      Al     0.375000000000     0.833333333333     0.666666666667     5.89336    
Al2      Al     0.250000000000     0.833333333333     0.666666666667     5.27445    
O1       O      0.295030000000     0.839103333333     0.980050000000    -2.18411    
O2       O      0.311762500000     0.800050000000     0.705303333333    -1.17039    
O3       O      0.384610000000     0.789590000000     0.694793333333    -1.31075    
O4       O      0.362650000000     0.697766666667     0.793223333333    -1.52783    
O5       O      0.445690000000     0.704446666667     0.799806666667    -1.37984    
C1       C      0.357442500000     0.782330000000     0.711273333333     0.79167    
C2       C      0.388610000000     0.754986666667     0.740676666667    -0.132625   
C3       C      0.363945000000     0.742640000000     0.757936666667    -0.35709    
C4       C      0.394672500000     0.713663333333     0.786800000000     1.24278    
H2       H      0.432420000000     0.744056666667     0.747686666667     0.0402664  
H3       H      0.319430000000     0.752623333333     0.750540000000     0.0988809  
H1       H      0.269262500000     0.824806666667     0.956446666667     0.34139    
Al1      Al     0.375000000000     0.666666666667     0.833333333333     5.89346    
Al2      Al     0.250000000000     0.666666666667     0.833333333333     5.27427    
O1       O      0.454970000000     0.672436666667     0.853283333333    -2.22528    
O2       O      0.438237500000     0.966716666667     0.794696666667    -1.1492     
O3       O      0.365390000000     0.956256666667     0.805206666667    -1.28952    
O4       O      0.387350000000     0.864433333333     0.706776666667    -1.52758    
O5       O      0.304310000000     0.871113333333     0.700193333333    -1.37926    
C1       C      0.392557500000     0.948996666667     0.788726666667     0.782517   
C2       C      0.361390000000     0.921653333333     0.759323333333    -0.127828   
C3       C      0.386055000000     0.909306666667     0.742063333333    -0.358148   
C4       C      0.355327500000     0.880330000000     0.713200000000     1.24372    
H2       H      0.317580000000     0.910723333333     0.752313333333     0.0399907  
H3       H      0.430570000000     0.919290000000     0.749460000000     0.10058    
H1       H      0.480737500000     0.991473333333     0.876886666667     0.354138   
O1       O      0.454970000000     0.827563333333     0.686616666667    -2.22541    
O2       O      0.438237500000     0.866616666667     0.961363333333    -1.15036    
O3       O      0.365390000000     0.877076666667     0.971873333333    -1.28691    
O4       O      0.387350000000     0.968900000000     0.873443333333    -1.50208    
O5       O      0.304310000000     0.962220000000     0.866860000000    -1.35733    
C1       C      0.392557500000     0.884336666667     0.955393333333     0.783843   
C2       C      0.361390000000     0.911680000000     0.925990000000    -0.13022    
C3       C      0.386055000000     0.924026666667     0.908730000000    -0.350962   
C4       C      0.355327500000     0.953003333333     0.879866666667     1.2273     
H2       H      0.317580000000     0.922610000000     0.918980000000     0.0423037  
H3       H      0.430570000000     0.914043333333     0.916126666667     0.099691   
H1       H      0.480737500000     0.841860000000     0.710220000000     0.345266   
O1       O      0.295030000000     0.994230000000     0.813383333333    -2.17754    
O2       O      0.311762500000     0.699950000000     0.871970000000    -1.17006    
O3       O      0.384610000000     0.710410000000     0.861460000000    -1.31059    
O4       O      0.362650000000     0.802233333333     0.959890000000    -1.50248    
O5       O      0.445690000000     0.795553333333     0.966473333333    -1.35559    
C1       C      0.357442500000     0.717670000000     0.877940000000     0.793054   
C2       C      0.388610000000     0.745013333333     0.907343333333    -0.134985   
C3       C      0.363945000000     0.757360000000     0.924603333333    -0.34972    
C4       C      0.394672500000     0.786336666667     0.953466666667     1.22703    
H2       H      0.432420000000     0.755943333333     0.914353333333     0.0423502  
H3       H      0.319430000000     0.747376666667     0.917206666667     0.0985382  
H1       H      0.269262500000     0.675193333333     0.789780000000     0.344841   
Al1      Al     0.625000000000     0.166666666667     0.000000000000     5.79905    
Al2      Al     0.500000000000     0.166666666667     0.000000000000     5.18938    
O1       O      0.545030000000     0.172436666667     0.313383333333    -2.22535    
O2       O      0.561762500000     0.133383333333     0.038636666667    -1.15749    
O3       O      0.634610000000     0.122923333333     0.028126666667    -1.2971     
O4       O      0.612650000000     0.031100000000     0.126556666667    -1.51136    
O5       O      0.695690000000     0.037780000000     0.133140000000    -1.36389    
C1       C      0.607442500000     0.115663333333     0.044606666667     0.782411   
C2       C      0.638610000000     0.088320000000     0.074010000000    -0.13234    
C3       C      0.613945000000     0.075973333333     0.091270000000    -0.354433   
C4       C      0.644672500000     0.046996666667     0.120133333333     1.22917    
H2       H      0.682420000000     0.077390000000     0.081020000000     0.0397513  
H3       H      0.569430000000     0.085956666667     0.083873333333     0.0979284  
H1       H      0.519262500000     0.158140000000     0.289780000000     0.3452     
Al1      Al     0.625000000000     0.000000000000     0.166666666667     5.80124    
Al2      Al     0.500000000000     0.000000000000     0.166666666667     5.19167    
O1       O      0.704970000000     0.005770000000     0.186616666667    -2.20651    
O2       O      0.688237500000     0.300050000000     0.128030000000    -1.17092    
O3       O      0.615390000000     0.289590000000     0.138540000000    -1.3109     
O4       O      0.637350000000     0.197766666667     0.040110000000    -1.50983    
O5       O      0.554310000000     0.204446666667     0.033526666667    -1.36486    
C1       C      0.642557500000     0.282330000000     0.122060000000     0.792656   
C2       C      0.611390000000     0.254986666667     0.092656666667    -0.135251   
C3       C      0.636055000000     0.242640000000     0.075396666667    -0.352329   
C4       C      0.605327500000     0.213663333333     0.046533333333     1.22746    
H2       H      0.567580000000     0.244056666667     0.085646666667     0.041019   
H3       H      0.680570000000     0.252623333333     0.082793333333     0.0975883  
H1       H      0.730737500000     0.324806666667     0.210220000000     0.345536   
O1       O      0.704970000000     0.160896666667     0.019950000000    -2.19824    
O2       O      0.688237500000     0.199950000000     0.294696666667    -1.17026    
O3       O      0.615390000000     0.210410000000     0.305206666667    -1.31061    
O4       O      0.637350000000     0.302233333333     0.206776666667    -1.5275     
O5       O      0.554310000000     0.295553333333     0.200193333333    -1.37965    
C1       C      0.642557500000     0.217670000000     0.288726666667     0.791915   
C2       C      0.611390000000     0.245013333333     0.259323333333    -0.132441   
C3       C      0.636055000000     0.257360000000     0.242063333333    -0.356787   
C4       C      0.605327500000     0.286336666667     0.213200000000     1.24287    
H2       H      0.567580000000     0.255943333333     0.252313333333     0.0404746  
H3       H      0.680570000000     0.247376666667     0.249460000000     0.0992601  
H1       H      0.730737500000     0.175193333333     0.043553333333     0.342978   
O1       O      0.545030000000     0.327563333333     0.146716666667    -2.22534    
O2       O      0.561762500000     0.033283333333     0.205303333333    -1.15911    
O3       O      0.634610000000     0.043743333333     0.194793333333    -1.29538    
O4       O      0.612650000000     0.135566666667     0.293223333333    -1.52786    
O5       O      0.695690000000     0.128886666667     0.299806666667    -1.37999    
C1       C      0.607442500000     0.051003333333     0.211273333333     0.782129   
C2       C      0.638610000000     0.078346666667     0.240676666667    -0.129878   
C3       C      0.613945000000     0.090693333333     0.257936666667    -0.358706   
C4       C      0.644672500000     0.119670000000     0.286800000000     1.24313    
H2       H      0.682420000000     0.089276666667     0.247686666667     0.0395171  
H3       H      0.569430000000     0.080710000000     0.250540000000     0.0989792  
H1       H      0.519262500000     0.008526666667     0.123113333333     0.330573   
Al1      Al     0.625000000000     0.166666666667     0.333333333333     5.89361    
Al2      Al     0.500000000000     0.166666666667     0.333333333333     5.27579    
O1       O      0.545030000000     0.172436666667     0.646716666667    -2.22526    
O2       O      0.561762500000     0.133383333333     0.371970000000    -1.17077    
O3       O      0.634610000000     0.122923333333     0.361460000000    -1.31112    
O4       O      0.612650000000     0.031100000000     0.459890000000    -1.51083    
O5       O      0.695690000000     0.037780000000     0.466473333333    -1.36351    
C1       C      0.607442500000     0.115663333333     0.377940000000     0.792454   
C2       C      0.638610000000     0.088320000000     0.407343333333    -0.135211   
C3       C      0.613945000000     0.075973333333     0.424603333333    -0.352506   
C4       C      0.644672500000     0.046996666667     0.453466666667     1.22858    
H2       H      0.682420000000     0.077390000000     0.414353333333     0.0410221  
H3       H      0.569430000000     0.085956666667     0.417206666667     0.0977897  
H1       H      0.519262500000     0.158140000000     0.623113333333     0.345106   
Al1      Al     0.625000000000     0.000000000000     0.500000000000     5.80097    
Al2      Al     0.500000000000     0.000000000000     0.500000000000     5.19121    
O1       O      0.704970000000     0.005770000000     0.519950000000    -2.20646    
O2       O      0.688237500000     0.300050000000     0.461363333333    -1.17033    
O3       O      0.615390000000     0.289590000000     0.471873333333    -1.31061    
O4       O      0.637350000000     0.197766666667     0.373443333333    -1.52749    
O5       O      0.554310000000     0.204446666667     0.366860000000    -1.37965    
C1       C      0.642557500000     0.282330000000     0.455393333333     0.791852   
C2       C      0.611390000000     0.254986666667     0.425990000000    -0.132505   
C3       C      0.636055000000     0.242640000000     0.408730000000    -0.356835   
C4       C      0.605327500000     0.213663333333     0.379866666667     1.24282    
H2       H      0.567580000000     0.244056666667     0.418980000000     0.0404409  
H3       H      0.680570000000     0.252623333333     0.416126666667     0.0991865  
H1       H      0.730737500000     0.324806666667     0.543553333333     0.345462   
O1       O      0.704970000000     0.160896666667     0.353283333333    -2.22533    
O2       O      0.688237500000     0.199950000000     0.628030000000    -1.17027    
O3       O      0.615390000000     0.210410000000     0.638540000000    -1.31062    
O4       O      0.637350000000     0.302233333333     0.540110000000    -1.52753    
O5       O      0.554310000000     0.295553333333     0.533526666667    -1.37967    
C1       C      0.642557500000     0.217670000000     0.622060000000     0.791817   
C2       C      0.611390000000     0.245013333333     0.592656666667    -0.132522   
C3       C      0.636055000000     0.257360000000     0.575396666667    -0.356882   
C4       C      0.605327500000     0.286336666667     0.546533333333     1.24276    
H2       H      0.567580000000     0.255943333333     0.585646666667     0.040387   
H3       H      0.680570000000     0.247376666667     0.582793333333     0.0991664  
H1       H      0.730737500000     0.175193333333     0.376886666667     0.345595   
O1       O      0.545030000000     0.327563333333     0.480050000000    -2.22527    
O2       O      0.561762500000     0.033283333333     0.538636666667    -1.15913    
O3       O      0.634610000000     0.043743333333     0.528126666667    -1.29545    
O4       O      0.612650000000     0.135566666667     0.626556666667    -1.52786    
O5       O      0.695690000000     0.128886666667     0.633140000000    -1.37998    
C1       C      0.607442500000     0.051003333333     0.544606666667     0.782026   
C2       C      0.638610000000     0.078346666667     0.574010000000    -0.129973   
C3       C      0.613945000000     0.090693333333     0.591270000000    -0.358785   
C4       C      0.644672500000     0.119670000000     0.620133333333     1.24302    
H2       H      0.682420000000     0.089276666667     0.581020000000     0.0394244  
H3       H      0.569430000000     0.080710000000     0.583873333333     0.0988877  
H1       H      0.519262500000     0.008526666667     0.456446666667     0.330971   
Al1      Al     0.625000000000     0.166666666667     0.666666666667     5.89322    
Al2      Al     0.500000000000     0.166666666667     0.666666666667     5.2754     
O1       O      0.545030000000     0.172436666667     0.980050000000    -2.18445    
O2       O      0.561762500000     0.133383333333     0.705303333333    -1.17075    
O3       O      0.634610000000     0.122923333333     0.694793333333    -1.31111    
O4       O      0.612650000000     0.031100000000     0.793223333333    -1.51102    
O5       O      0.695690000000     0.037780000000     0.799806666667    -1.36368    
C1       C      0.607442500000     0.115663333333     0.711273333333     0.792364   
C2       C      0.638610000000     0.088320000000     0.740676666667    -0.135219   
C3       C      0.613945000000     0.075973333333     0.757936666667    -0.352601   
C4       C      0.644672500000     0.046996666667     0.786800000000     1.2287     
H2       H      0.682420000000     0.077390000000     0.747686666667     0.0409573  
H3       H      0.569430000000     0.085956666667     0.750540000000     0.0977609  
H1       H      0.519262500000     0.158140000000     0.956446666667     0.34159    
Al1      Al     0.625000000000     0.000000000000     0.833333333333     5.80159    
Al2      Al     0.500000000000     0.000000000000     0.833333333333     5.19187    
O1       O      0.704970000000     0.005770000000     0.853283333333    -2.20658    
O2       O      0.688237500000     0.300050000000     0.794696666667    -1.1705     
O3       O      0.615390000000     0.289590000000     0.805206666667    -1.31076    
O4       O      0.637350000000     0.197766666667     0.706776666667    -1.52745    
O5       O      0.554310000000     0.204446666667     0.700193333333    -1.37963    
C1       C      0.642557500000     0.282330000000     0.788726666667     0.791917   
C2       C      0.611390000000     0.254986666667     0.759323333333    -0.132589   
C3       C      0.636055000000     0.242640000000     0.742063333333    -0.356849   
C4       C      0.605327500000     0.213663333333     0.713200000000     1.24271    
H2       H      0.567580000000     0.244056666667     0.752313333333     0.0404109  
H3       H      0.680570000000     0.252623333333     0.749460000000     0.0991268  
H1       H      0.730737500000     0.324806666667     0.876886666667     0.346247   
O1       O      0.704970000000     0.160896666667     0.686616666667    -2.22523    
O2       O      0.688237500000     0.199950000000     0.961363333333    -1.15019    
O3       O      0.615390000000     0.210410000000     0.971873333333    -1.28725    
O4       O      0.637350000000     0.302233333333     0.873443333333    -1.52724    
O5       O      0.554310000000     0.295553333333     0.866860000000    -1.3797     
C1       C      0.642557500000     0.217670000000     0.955393333333     0.782365   
C2       C      0.611390000000     0.245013333333     0.925990000000    -0.127705   
C3       C      0.636055000000     0.257360000000     0.908730000000    -0.358092   
C4       C      0.605327500000     0.286336666667     0.879866666667     1.24379    
H2       H      0.567580000000     0.255943333333     0.918980000000     0.040283   
H3       H      0.680570000000     0.247376666667     0.916126666667     0.100665   
H1       H      0.730737500000     0.175193333333     0.710220000000     0.345547   
O1       O      0.545030000000     0.327563333333     0.813383333333    -2.22556    
O2       O      0.561762500000     0.033283333333     0.871970000000    -1.159      
O3       O      0.634610000000     0.043743333333     0.861460000000    -1.29545    
O4       O      0.612650000000     0.135566666667     0.959890000000    -1.50259    
O5       O      0.695690000000     0.128886666667     0.966473333333    -1.35582    
C1       C      0.607442500000     0.051003333333     0.877940000000     0.783446   
C2       C      0.638610000000     0.078346666667     0.907343333333    -0.13237    
C3       C      0.613945000000     0.090693333333     0.924603333333    -0.351448   
C4       C      0.644672500000     0.119670000000     0.953466666667     1.22734    
H2       H      0.682420000000     0.089276666667     0.914353333333     0.041466   
H3       H      0.569430000000     0.080710000000     0.917206666667     0.0985291  
H1       H      0.519262500000     0.008526666667     0.789780000000     0.330936   
Al1      Al     0.625000000000     0.500000000000     0.000000000000     5.79871    
Al2      Al     0.500000000000     0.500000000000     0.000000000000     5.18915    
O1       O      0.545030000000     0.505770000000     0.313383333333    -2.22528    
O2       O      0.561762500000     0.466716666667     0.038636666667    -1.15714    
O3       O      0.634610000000     0.456256666667     0.028126666667    -1.29655    
O4       O      0.612650000000     0.364433333333     0.126556666667    -1.52818    
O5       O      0.695690000000     0.371113333333     0.133140000000    -1.37993    
C1       C      0.607442500000     0.448996666667     0.044606666667     0.781785   
C2       C      0.638610000000     0.421653333333     0.074010000000    -0.129681   
C3       C      0.613945000000     0.409306666667     0.091270000000    -0.358838   
C4       C      0.644672500000     0.380330000000     0.120133333333     1.24329    
H2       H      0.682420000000     0.410723333333     0.081020000000     0.0392613  
H3       H      0.569430000000     0.419290000000     0.083873333333     0.0991231  
H1       H      0.519262500000     0.491473333333     0.289780000000     0.345168   
Al1      Al     0.625000000000     0.333333333333     0.166666666667     5.89354    
Al2      Al     0.500000000000     0.333333333333     0.166666666667     5.27603    
O1       O      0.704970000000     0.339103333333     0.186616666667    -2.22524    
O2       O      0.688237500000     0.633383333333     0.128030000000    -1.17093    
O3       O      0.615390000000     0.622923333333     0.138540000000    -1.31093    
O4       O      0.637350000000     0.531100000000     0.040110000000    -1.5099     
O5       O      0.554310000000     0.537780000000     0.033526666667    -1.36492    
C1       C      0.642557500000     0.615663333333     0.122060000000     0.792544   
C2       C      0.611390000000     0.588320000000     0.092656666667    -0.135335   
C3       C      0.636055000000     0.575973333333     0.075396666667    -0.352438   
C4       C      0.605327500000     0.546996666667     0.046533333333     1.22736    
H2       H      0.567580000000     0.577390000000     0.085646666667     0.0409134  
H3       H      0.680570000000     0.585956666667     0.082793333333     0.0974993  
H1       H      0.730737500000     0.658140000000     0.210220000000     0.345463   
O1       O      0.704970000000     0.494230000000     0.019950000000    -2.19809    
O2       O      0.688237500000     0.533283333333     0.294696666667    -1.17034    
O3       O      0.615390000000     0.543743333333     0.305206666667    -1.31066    
O4       O      0.637350000000     0.635566666667     0.206776666667    -1.52749    
O5       O      0.554310000000     0.628886666667     0.200193333333    -1.37966    
C1       C      0.642557500000     0.551003333333     0.288726666667     0.791819   
C2       C      0.611390000000     0.578346666667     0.259323333333    -0.132545   
C3       C      0.636055000000     0.590693333333     0.242063333333    -0.356869   
C4       C      0.605327500000     0.619670000000     0.213200000000     1.24275    
H2       H      0.567580000000     0.589276666667     0.252313333333     0.0403902  
H3       H      0.680570000000     0.580710000000     0.249460000000     0.0991599  
H1       H      0.730737500000     0.508526666667     0.043553333333     0.34283    
O1       O      0.545030000000     0.660896666667     0.146716666667    -2.22526    
O2       O      0.561762500000     0.366616666667     0.205303333333    -1.17043    
O3       O      0.634610000000     0.377076666667     0.194793333333    -1.31053    
O4       O      0.612650000000     0.468900000000     0.293223333333    -1.5276     
O5       O      0.695690000000     0.462220000000     0.299806666667    -1.37952    
C1       C      0.607442500000     0.384336666667     0.211273333333     0.791912   
C2       C      0.638610000000     0.411680000000     0.240676666667    -0.132494   
C3       C      0.613945000000     0.424026666667     0.257936666667    -0.35685    
C4       C      0.644672500000     0.453003333333     0.286800000000     1.24273    
H2       H      0.682420000000     0.422610000000     0.247686666667     0.0405924  
H3       H      0.569430000000     0.414043333333     0.250540000000     0.0990448  
H1       H      0.519262500000     0.341860000000     0.123113333333     0.344729   
Al1      Al     0.625000000000     0.500000000000     0.333333333333     5.89329    
Al2      Al     0.500000000000     0.500000000000     0.333333333333     5.27557    
O1       O      0.545030000000     0.505770000000     0.646716666667    -2.22519    
O2       O      0.561762500000     0.466716666667     0.371970000000    -1.17043    
O3       O      0.634610000000     0.456256666667     0.361460000000    -1.31058    
O4       O      0.612650000000     0.364433333333     0.459890000000    -1.52764    
O5       O      0.695690000000     0.371113333333     0.466473333333    -1.37956    
C1       C      0.607442500000     0.448996666667     0.377940000000     0.79183    
C2       C      0.638610000000     0.421653333333     0.407343333333    -0.132552   
C3       C      0.613945000000     0.409306666667     0.424603333333    -0.356911   
C4       C      0.644672500000     0.380330000000     0.453466666667     1.2427     
H2       H      0.682420000000     0.410723333333     0.414353333333     0.0405324  
H3       H      0.569430000000     0.419290000000     0.417206666667     0.0989847  
H1       H      0.519262500000     0.491473333333     0.623113333333     0.345075   
Al1      Al     0.625000000000     0.333333333333     0.500000000000     5.89329    
Al2      Al     0.500000000000     0.333333333333     0.500000000000     5.27559    
O1       O      0.704970000000     0.339103333333     0.519950000000    -2.2252     
O2       O      0.688237500000     0.633383333333     0.461363333333    -1.17034    
O3       O      0.615390000000     0.622923333333     0.471873333333    -1.31064    
O4       O      0.637350000000     0.531100000000     0.373443333333    -1.52756    
O5       O      0.554310000000     0.537780000000     0.366860000000    -1.37971    
C1       C      0.642557500000     0.615663333333     0.455393333333     0.79174    
C2       C      0.611390000000     0.588320000000     0.425990000000    -0.132589   
C3       C      0.636055000000     0.575973333333     0.408730000000    -0.356946   
C4       C      0.605327500000     0.546996666667     0.379866666667     1.24272    
H2       H      0.567580000000     0.577390000000     0.418980000000     0.0403351  
H3       H      0.680570000000     0.585956666667     0.416126666667     0.0990978  
H1       H      0.730737500000     0.658140000000     0.543553333333     0.345388   
O1       O      0.704970000000     0.494230000000     0.353283333333    -2.22519    
O2       O      0.688237500000     0.533283333333     0.628030000000    -1.17036    
O3       O      0.615390000000     0.543743333333     0.638540000000    -1.31067    
O4       O      0.637350000000     0.635566666667     0.540110000000    -1.52753    
O5       O      0.554310000000     0.628886666667     0.533526666667    -1.37968    
C1       C      0.642557500000     0.551003333333     0.622060000000     0.791721   
C2       C      0.611390000000     0.578346666667     0.592656666667    -0.132627   
C3       C      0.636055000000     0.590693333333     0.575396666667    -0.356964   
C4       C      0.605327500000     0.619670000000     0.546533333333     1.24264    
H2       H      0.567580000000     0.589276666667     0.585646666667     0.0403026  
H3       H      0.680570000000     0.580710000000     0.582793333333     0.0990662  
H1       H      0.730737500000     0.508526666667     0.376886666667     0.345447   
O1       O      0.545030000000     0.660896666667     0.480050000000    -2.22518    
O2       O      0.561762500000     0.366616666667     0.538636666667    -1.17045    
O3       O      0.634610000000     0.377076666667     0.528126666667    -1.31061    
O4       O      0.612650000000     0.468900000000     0.626556666667    -1.52761    
O5       O      0.695690000000     0.462220000000     0.633140000000    -1.37951    
C1       C      0.607442500000     0.384336666667     0.544606666667     0.791812   
C2       C      0.638610000000     0.411680000000     0.574010000000    -0.13259    
C3       C      0.613945000000     0.424026666667     0.591270000000    -0.356928   
C4       C      0.644672500000     0.453003333333     0.620133333333     1.24262    
H2       H      0.682420000000     0.422610000000     0.581020000000     0.0404998  
H3       H      0.569430000000     0.414043333333     0.583873333333     0.0989532  
H1       H      0.519262500000     0.341860000000     0.456446666667     0.34513    
Al1      Al     0.625000000000     0.500000000000     0.666666666667     5.8929     
Al2      Al     0.500000000000     0.500000000000     0.666666666667     5.27518    
O1       O      0.545030000000     0.505770000000     0.980050000000    -2.18437    
O2       O      0.561762500000     0.466716666667     0.705303333333    -1.1704     
O3       O      0.634610000000     0.456256666667     0.694793333333    -1.31057    
O4       O      0.612650000000     0.364433333333     0.793223333333    -1.52783    
O5       O      0.695690000000     0.371113333333     0.799806666667    -1.37972    
C1       C      0.607442500000     0.448996666667     0.711273333333     0.79174    
C2       C      0.638610000000     0.421653333333     0.740676666667    -0.132561   
C3       C      0.613945000000     0.409306666667     0.757936666667    -0.357006   
C4       C      0.644672500000     0.380330000000     0.786800000000     1.24282    
H2       H      0.682420000000     0.410723333333     0.747686666667     0.0404678  
H3       H      0.569430000000     0.419290000000     0.750540000000     0.0989558  
H1       H      0.519262500000     0.491473333333     0.956446666667     0.341559   
Al1      Al     0.625000000000     0.333333333333     0.833333333333     5.8939     
Al2      Al     0.500000000000     0.333333333333     0.833333333333     5.27623    
O1       O      0.704970000000     0.339103333333     0.853283333333    -2.22532    
O2       O      0.688237500000     0.633383333333     0.794696666667    -1.17051    
O3       O      0.615390000000     0.622923333333     0.805206666667    -1.31079    
O4       O      0.637350000000     0.531100000000     0.706776666667    -1.52752    
O5       O      0.554310000000     0.537780000000     0.700193333333    -1.37969    
C1       C      0.642557500000     0.615663333333     0.788726666667     0.791805   
C2       C      0.611390000000     0.588320000000     0.759323333333    -0.132672   
C3       C      0.636055000000     0.575973333333     0.742063333333    -0.356959   
C4       C      0.605327500000     0.546996666667     0.713200000000     1.24262    
H2       H      0.567580000000     0.577390000000     0.752313333333     0.0403051  
H3       H      0.680570000000     0.585956666667     0.749460000000     0.099038   
H1       H      0.730737500000     0.658140000000     0.876886666667     0.346174   
O1       O      0.704970000000     0.494230000000     0.686616666667    -2.22509    
O2       O      0.688237500000     0.533283333333     0.961363333333    -1.15027    
O3       O      0.615390000000     0.543743333333     0.971873333333    -1.28729    
O4       O      0.637350000000     0.635566666667     0.873443333333    -1.52724    
O5       O      0.554310000000     0.628886666667     0.866860000000    -1.37971    
C1       C      0.642557500000     0.551003333333     0.955393333333     0.782267   
C2       C      0.611390000000     0.578346666667     0.925990000000    -0.127809   
C3       C      0.636055000000     0.590693333333     0.908730000000    -0.358175   
C4       C      0.605327500000     0.619670000000     0.879866666667     1.24367    
H2       H      0.567580000000     0.589276666667     0.918980000000     0.0401985  
H3       H      0.680570000000     0.580710000000     0.916126666667     0.100565   
H1       H      0.730737500000     0.508526666667     0.710220000000     0.345399   
O1       O      0.545030000000     0.660896666667     0.813383333333    -2.22547    
O2       O      0.561762500000     0.366616666667     0.871970000000    -1.17031    
O3       O      0.634610000000     0.377076666667     0.861460000000    -1.3106     
O4       O      0.612650000000     0.468900000000     0.959890000000    -1.50233    
O5       O      0.695690000000     0.462220000000     0.966473333333    -1.35535    
C1       C      0.607442500000     0.384336666667     0.877940000000     0.79323    
C2       C      0.638610000000     0.411680000000     0.907343333333    -0.134988   
C3       C      0.613945000000     0.424026666667     0.924603333333    -0.34959    
C4       C      0.644672500000     0.453003333333     0.953466666667     1.22693    
H2       H      0.682420000000     0.422610000000     0.914353333333     0.0425416  
H3       H      0.569430000000     0.414043333333     0.917206666667     0.0985944  
H1       H      0.519262500000     0.341860000000     0.789780000000     0.345094   
Al1      Al     0.625000000000     0.833333333333     0.000000000000     5.79924    
Al2      Al     0.500000000000     0.833333333333     0.000000000000     5.19001    
O1       O      0.545030000000     0.839103333333     0.313383333333    -2.22532    
O2       O      0.561762500000     0.800050000000     0.038636666667    -1.15736    
O3       O      0.634610000000     0.789590000000     0.028126666667    -1.29673    
O4       O      0.612650000000     0.697766666667     0.126556666667    -1.52815    
O5       O      0.695690000000     0.704446666667     0.133140000000    -1.37989    
C1       C      0.607442500000     0.782330000000     0.044606666667     0.781821   
C2       C      0.638610000000     0.754986666667     0.074010000000    -0.129764   
C3       C      0.613945000000     0.742640000000     0.091270000000    -0.358853   
C4       C      0.644672500000     0.713663333333     0.120133333333     1.2432     
H2       H      0.682420000000     0.744056666667     0.081020000000     0.0392246  
H3       H      0.569430000000     0.752623333333     0.083873333333     0.0990733  
H1       H      0.519262500000     0.824806666667     0.289780000000     0.345191   
Al1      Al     0.625000000000     0.666666666667     0.166666666667     5.89315    
Al2      Al     0.500000000000     0.666666666667     0.166666666667     5.27563    
O1       O      0.704970000000     0.672436666667     0.186616666667    -2.22514    
O2       O      0.688237500000     0.966716666667     0.128030000000    -1.14956    
O3       O      0.615390000000     0.956256666667     0.138540000000    -1.28965    
O4       O      0.637350000000     0.864433333333     0.040110000000    -1.50994    
O5       O      0.554310000000     0.871113333333     0.033526666667    -1.36482    
C1       C      0.642557500000     0.948996666667     0.122060000000     0.783255   
C2       C      0.611390000000     0.921653333333     0.092656666667    -0.130434   
C3       C      0.636055000000     0.909306666667     0.075396666667    -0.353662   
C4       C      0.605327500000     0.880330000000     0.046533333333     1.2286     
H2       H      0.567580000000     0.910723333333     0.085646666667     0.0406006  
H3       H      0.680570000000     0.919290000000     0.082793333333     0.0991847  
H1       H      0.730737500000     0.991473333333     0.210220000000     0.353748   
O1       O      0.704970000000     0.827563333333     0.019950000000    -2.19836    
O2       O      0.688237500000     0.866616666667     0.294696666667    -1.17046    
O3       O      0.615390000000     0.877076666667     0.305206666667    -1.31032    
O4       O      0.637350000000     0.968900000000     0.206776666667    -1.50232    
O5       O      0.554310000000     0.962220000000     0.200193333333    -1.35761    
C1       C      0.642557500000     0.884336666667     0.288726666667     0.793409   
C2       C      0.611390000000     0.911680000000     0.259323333333    -0.13492    
C3       C      0.636055000000     0.924026666667     0.242063333333    -0.349691   
C4       C      0.605327500000     0.953003333333     0.213200000000     1.2265     
H2       H      0.567580000000     0.922610000000     0.252313333333     0.042494   
H3       H      0.680570000000     0.914043333333     0.249460000000     0.0984165  
H1       H      0.730737500000     0.841860000000     0.043553333333     0.343032   
O1       O      0.545030000000     0.994230000000     0.146716666667    -2.17767    
O2       O      0.561762500000     0.699950000000     0.205303333333    -1.17041    
O3       O      0.634610000000     0.710410000000     0.194793333333    -1.3105     
O4       O      0.612650000000     0.802233333333     0.293223333333    -1.52777    
O5       O      0.695690000000     0.795553333333     0.299806666667    -1.37974    
C1       C      0.607442500000     0.717670000000     0.211273333333     0.791832   
C2       C      0.638610000000     0.745013333333     0.240676666667    -0.132505   
C3       C      0.613945000000     0.757360000000     0.257936666667    -0.356942   
C4       C      0.644672500000     0.786336666667     0.286800000000     1.24281    
H2       H      0.682420000000     0.755943333333     0.247686666667     0.0405487  
H3       H      0.569430000000     0.747376666667     0.250540000000     0.0990123  
H1       H      0.519262500000     0.675193333333     0.123113333333     0.344667   
Al1      Al     0.625000000000     0.833333333333     0.333333333333     5.89381    
Al2      Al     0.500000000000     0.833333333333     0.333333333333     5.27642    
O1       O      0.545030000000     0.839103333333     0.646716666667    -2.22523    
O2       O      0.561762500000     0.800050000000     0.371970000000    -1.17064    
O3       O      0.634610000000     0.789590000000     0.361460000000    -1.31075    
O4       O      0.612650000000     0.697766666667     0.459890000000    -1.52761    
O5       O      0.695690000000     0.704446666667     0.466473333333    -1.37952    
C1       C      0.607442500000     0.782330000000     0.377940000000     0.791864   
C2       C      0.638610000000     0.754986666667     0.407343333333    -0.132634   
C3       C      0.613945000000     0.742640000000     0.424603333333    -0.356926   
C4       C      0.644672500000     0.713663333333     0.453466666667     1.24261    
H2       H      0.682420000000     0.744056666667     0.414353333333     0.0404956  
H3       H      0.569430000000     0.752623333333     0.417206666667     0.098935   
H1       H      0.519262500000     0.824806666667     0.623113333333     0.345098   
Al1      Al     0.625000000000     0.666666666667     0.500000000000     5.8929     
Al2      Al     0.500000000000     0.666666666667     0.500000000000     5.27519    
O1       O      0.704970000000     0.672436666667     0.519950000000    -2.2251     
O2       O      0.688237500000     0.966716666667     0.461363333333    -1.14897    
O3       O      0.615390000000     0.956256666667     0.471873333333    -1.28936    
O4       O      0.637350000000     0.864433333333     0.373443333333    -1.5276     
O5       O      0.554310000000     0.871113333333     0.366860000000    -1.37961    
C1       C      0.642557500000     0.948996666667     0.455393333333     0.782448   
C2       C      0.611390000000     0.921653333333     0.425990000000    -0.127688   
C3       C      0.636055000000     0.909306666667     0.408730000000    -0.358169   
C4       C      0.605327500000     0.880330000000     0.379866666667     1.24395    
H2       H      0.567580000000     0.910723333333     0.418980000000     0.0400223  
H3       H      0.680570000000     0.919290000000     0.416126666667     0.100783   
H1       H      0.730737500000     0.991473333333     0.543553333333     0.353674   
O1       O      0.704970000000     0.827563333333     0.353283333333    -2.22544    
O2       O      0.688237500000     0.866616666667     0.628030000000    -1.17048    
O3       O      0.615390000000     0.877076666667     0.638540000000    -1.31033    
O4       O      0.637350000000     0.968900000000     0.540110000000    -1.50235    
O5       O      0.554310000000     0.962220000000     0.533526666667    -1.35762    
C1       C      0.642557500000     0.884336666667     0.622060000000     0.793311   
C2       C      0.611390000000     0.911680000000     0.592656666667    -0.135002   
C3       C      0.636055000000     0.924026666667     0.575396666667    -0.349785   
C4       C      0.605327500000     0.953003333333     0.546533333333     1.22639    
H2       H      0.567580000000     0.922610000000     0.585646666667     0.0424066  
H3       H      0.680570000000     0.914043333333     0.582793333333     0.0983226  
H1       H      0.730737500000     0.841860000000     0.376886666667     0.34565    
O1       O      0.545030000000     0.994230000000     0.480050000000    -2.17758    
O2       O      0.561762500000     0.699950000000     0.538636666667    -1.17043    
O3       O      0.634610000000     0.710410000000     0.528126666667    -1.31058    
O4       O      0.612650000000     0.802233333333     0.626556666667    -1.52778    
O5       O      0.695690000000     0.795553333333     0.633140000000    -1.37974    
C1       C      0.607442500000     0.717670000000     0.544606666667     0.791731   
C2       C      0.638610000000     0.745013333333     0.574010000000    -0.132601   
C3       C      0.613945000000     0.757360000000     0.591270000000    -0.35702    
C4       C      0.644672500000     0.786336666667     0.620133333333     1.2427     
H2       H      0.682420000000     0.755943333333     0.581020000000     0.0404562  
H3       H      0.569430000000     0.747376666667     0.583873333333     0.0989207  
H1       H      0.519262500000     0.675193333333     0.456446666667     0.345069   
Al1      Al     0.625000000000     0.833333333333     0.666666666667     5.89342    
Al2      Al     0.500000000000     0.833333333333     0.666666666667     5.27603    
O1       O      0.545030000000     0.839103333333     0.980050000000    -2.18442    
O2       O      0.561762500000     0.800050000000     0.705303333333    -1.17062    
O3       O      0.634610000000     0.789590000000     0.694793333333    -1.31074    
O4       O      0.612650000000     0.697766666667     0.793223333333    -1.5278     
O5       O      0.695690000000     0.704446666667     0.799806666667    -1.37968    
C1       C      0.607442500000     0.782330000000     0.711273333333     0.791774   
C2       C      0.638610000000     0.754986666667     0.740676666667    -0.132643   
C3       C      0.613945000000     0.742640000000     0.757936666667    -0.357021   
C4       C      0.644672500000     0.713663333333     0.786800000000     1.24273    
H2       H      0.682420000000     0.744056666667     0.747686666667     0.040431   
H3       H      0.569430000000     0.752623333333     0.750540000000     0.0989061  
H1       H      0.519262500000     0.824806666667     0.956446666667     0.341582   
Al1      Al     0.625000000000     0.666666666667     0.833333333333     5.89351    
Al2      Al     0.500000000000     0.666666666667     0.833333333333     5.27584    
O1       O      0.704970000000     0.672436666667     0.853283333333    -2.22522    
O2       O      0.688237500000     0.966716666667     0.794696666667    -1.14914    
O3       O      0.615390000000     0.956256666667     0.805206666667    -1.28951    
O4       O      0.637350000000     0.864433333333     0.706776666667    -1.52756    
O5       O      0.554310000000     0.871113333333     0.700193333333    -1.37959    
C1       C      0.642557500000     0.948996666667     0.788726666667     0.782515   
C2       C      0.611390000000     0.921653333333     0.759323333333    -0.127771   
C3       C      0.636055000000     0.909306666667     0.742063333333    -0.358183   
C4       C      0.605327500000     0.880330000000     0.713200000000     1.24385    
H2       H      0.567580000000     0.910723333333     0.752313333333     0.0399923  
H3       H      0.680570000000     0.919290000000     0.749460000000     0.100723   
H1       H      0.730737500000     0.991473333333     0.876886666667     0.354457   
O1       O      0.704970000000     0.827563333333     0.686616666667    -2.22535    
O2       O      0.688237500000     0.866616666667     0.961363333333    -1.1504     
O3       O      0.615390000000     0.877076666667     0.971873333333    -1.28696    
O4       O      0.637350000000     0.968900000000     0.873443333333    -1.50207    
O5       O      0.554310000000     0.962220000000     0.866860000000    -1.35766    
C1       C      0.642557500000     0.884336666667     0.955393333333     0.783857   
C2       C      0.611390000000     0.911680000000     0.925990000000    -0.130185   
C3       C      0.636055000000     0.924026666667     0.908730000000    -0.350997   
C4       C      0.605327500000     0.953003333333     0.879866666667     1.22742    
H2       H      0.567580000000     0.922610000000     0.918980000000     0.042302   
H3       H      0.680570000000     0.914043333333     0.916126666667     0.0998213  
H1       H      0.730737500000     0.841860000000     0.710220000000     0.345601   
O1       O      0.545030000000     0.994230000000     0.813383333333    -2.17788    
O2       O      0.561762500000     0.699950000000     0.871970000000    -1.1703     
O3       O      0.634610000000     0.710410000000     0.861460000000    -1.31058    
O4       O      0.612650000000     0.802233333333     0.959890000000    -1.5025     
O5       O      0.695690000000     0.795553333333     0.966473333333    -1.35558    
C1       C      0.607442500000     0.717670000000     0.877940000000     0.793149   
C2       C      0.638610000000     0.745013333333     0.907343333333    -0.134998   
C3       C      0.613945000000     0.757360000000     0.924603333333    -0.349683   
C4       C      0.644672500000     0.786336666667     0.953466666667     1.22702    
H2       H      0.682420000000     0.755943333333     0.914353333333     0.0424978  
H3       H      0.569430000000     0.747376666667     0.917206666667     0.098562   
H1       H      0.519262500000     0.675193333333     0.789780000000     0.345033   
Al1      Al     0.875000000000     0.166666666667     0.000000000000     5.78892    
Al2      Al     0.750000000000     0.166666666667     0.000000000000     5.18943    
O1       O      0.795030000000     0.172436666667     0.313383333333    -2.22339    
O2       O      0.811762500000     0.133383333333     0.038636666667    -1.15713    
O3       O      0.884610000000     0.122923333333     0.028126666667    -1.29354    
O4       O      0.862650000000     0.031100000000     0.126556666667    -1.50374    
O5       O      0.945690000000     0.037780000000     0.133140000000    -1.32874    
C1       C      0.857442500000     0.115663333333     0.044606666667     0.784011   
C2       C      0.888610000000     0.088320000000     0.074010000000    -0.134181   
C3       C      0.863945000000     0.075973333333     0.091270000000    -0.346581   
C4       C      0.894672500000     0.046996666667     0.120133333333     1.21504    
H2       H      0.932420000000     0.077390000000     0.081020000000     0.0461304  
H3       H      0.819430000000     0.085956666667     0.083873333333     0.0968904  
H1       H      0.769262500000     0.158140000000     0.289780000000     0.34486    
Al1      Al     0.875000000000     0.000000000000     0.166666666667     5.79026    
Al2      Al     0.750000000000     0.000000000000     0.166666666667     5.19135    
O1       O      0.954970000000     0.005770000000     0.186616666667    -2.1747     
O2       O      0.938237500000     0.300050000000     0.128030000000    -1.14001    
O3       O      0.865390000000     0.289590000000     0.138540000000    -1.30453    
O4       O      0.887350000000     0.197766666667     0.040110000000    -1.50566    
O5       O      0.804310000000     0.204446666667     0.033526666667    -1.36452    
C1       C      0.892557500000     0.282330000000     0.122060000000     0.783832   
C2       C      0.861390000000     0.254986666667     0.092656666667    -0.129378   
C3       C      0.886055000000     0.242640000000     0.075396666667    -0.353011   
C4       C      0.855327500000     0.213663333333     0.046533333333     1.22819    
H2       H      0.817580000000     0.244056666667     0.085646666667     0.0404155  
H3       H      0.930570000000     0.252623333333     0.082793333333     0.103553   
H1       H      0.980737500000     0.324806666667     0.210220000000     0.352299   
O1       O      0.954970000000     0.160896666667     0.019950000000    -2.16696    
O2       O      0.938237500000     0.199950000000     0.294696666667    -1.13917    
O3       O      0.865390000000     0.210410000000     0.305206666667    -1.3042     
O4       O      0.887350000000     0.302233333333     0.206776666667    -1.52316    
O5       O      0.804310000000     0.295553333333     0.200193333333    -1.37924    
C1       C      0.892557500000     0.217670000000     0.288726666667     0.783041   
C2       C      0.861390000000     0.245013333333     0.259323333333    -0.126551   
C3       C      0.886055000000     0.257360000000     0.242063333333    -0.357442   
C4       C      0.855327500000     0.286336666667     0.213200000000     1.2435     
H2       H      0.817580000000     0.255943333333     0.252313333333     0.0398729  
H3       H      0.930570000000     0.247376666667     0.249460000000     0.105246   
H1       H      0.980737500000     0.175193333333     0.043553333333     0.349723   
O1       O      0.795030000000     0.327563333333     0.146716666667    -2.2234     
O2       O      0.811762500000     0.033283333333     0.205303333333    -1.15869    
O3       O      0.884610000000     0.043743333333     0.194793333333    -1.29168    
O4       O      0.862650000000     0.135566666667     0.293223333333    -1.52018    
O5       O      0.945690000000     0.128886666667     0.299806666667    -1.34464    
C1       C      0.857442500000     0.051003333333     0.211273333333     0.78368    
C2       C      0.888610000000     0.078346666667     0.240676666667    -0.131714   
C3       C      0.863945000000     0.090693333333     0.257936666667    -0.350816   
C4       C      0.894672500000     0.119670000000     0.286800000000     1.22891    
H2       H      0.932420000000     0.089276666667     0.247686666667     0.0459234  
H3       H      0.819430000000     0.080710000000     0.250540000000     0.097938   
H1       H      0.769262500000     0.008526666667     0.123113333333     0.330242   
Al1      Al     0.875000000000     0.166666666667     0.333333333333     5.88249    
Al2      Al     0.750000000000     0.166666666667     0.333333333333     5.27542    
O1       O      0.795030000000     0.172436666667     0.646716666667    -2.2233     
O2       O      0.811762500000     0.133383333333     0.371970000000    -1.17034    
O3       O      0.884610000000     0.122923333333     0.361460000000    -1.3074     
O4       O      0.862650000000     0.031100000000     0.459890000000    -1.50314    
O5       O      0.945690000000     0.037780000000     0.466473333333    -1.32812    
C1       C      0.857442500000     0.115663333333     0.377940000000     0.793999   
C2       C      0.888610000000     0.088320000000     0.407343333333    -0.137048   
C3       C      0.863945000000     0.075973333333     0.424603333333    -0.344609   
C4       C      0.894672500000     0.046996666667     0.453466666667     1.21434    
H2       H      0.932420000000     0.077390000000     0.414353333333     0.0474368  
H3       H      0.819430000000     0.085956666667     0.417206666667     0.0967465  
H1       H      0.769262500000     0.158140000000     0.623113333333     0.344766   
Al1      Al     0.875000000000     0.000000000000     0.500000000000     5.78988    
Al2      Al     0.750000000000     0.000000000000     0.500000000000     5.19088    
O1       O      0.954970000000     0.005770000000     0.519950000000    -2.17442    
O2       O      0.938237500000     0.300050000000     0.461363333333    -1.1392     
O3       O      0.865390000000     0.289590000000     0.471873333333    -1.30419    
O4       O      0.887350000000     0.197766666667     0.373443333333    -1.52313    
O5       O      0.804310000000     0.204446666667     0.366860000000    -1.37923    
C1       C      0.892557500000     0.282330000000     0.455393333333     0.782958   
C2       C      0.861390000000     0.254986666667     0.425990000000    -0.126609   
C3       C      0.886055000000     0.242640000000     0.408730000000    -0.357492   
C4       C      0.855327500000     0.213663333333     0.379866666667     1.24344    
H2       H      0.817580000000     0.244056666667     0.418980000000     0.0398372  
H3       H      0.930570000000     0.252623333333     0.416126666667     0.105181   
H1       H      0.980737500000     0.324806666667     0.543553333333     0.352224   
O1       O      0.954970000000     0.160896666667     0.353283333333    -2.19334    
O2       O      0.938237500000     0.199950000000     0.628030000000    -1.13922    
O3       O      0.865390000000     0.210410000000     0.638540000000    -1.30422    
O4       O      0.887350000000     0.302233333333     0.540110000000    -1.52318    
O5       O      0.804310000000     0.295553333333     0.533526666667    -1.37925    
C1       C      0.892557500000     0.217670000000     0.622060000000     0.782941   
C2       C      0.861390000000     0.245013333333     0.592656666667    -0.126641   
C3       C      0.886055000000     0.257360000000     0.575396666667    -0.357537   
C4       C      0.855327500000     0.286336666667     0.546533333333     1.24338    
H2       H      0.817580000000     0.255943333333     0.585646666667     0.039784   
H3       H      0.930570000000     0.247376666667     0.582793333333     0.105146   
H1       H      0.980737500000     0.175193333333     0.376886666667     0.352371   
O1       O      0.795030000000     0.327563333333     0.480050000000    -2.2233     
O2       O      0.811762500000     0.033283333333     0.538636666667    -1.15871    
O3       O      0.884610000000     0.043743333333     0.528126666667    -1.29174    
O4       O      0.862650000000     0.135566666667     0.626556666667    -1.52019    
O5       O      0.945690000000     0.128886666667     0.633140000000    -1.34468    
C1       C      0.857442500000     0.051003333333     0.544606666667     0.78357    
C2       C      0.888610000000     0.078346666667     0.574010000000    -0.13181    
C3       C      0.863945000000     0.090693333333     0.591270000000    -0.350905   
C4       C      0.894672500000     0.119670000000     0.620133333333     1.2288     
H2       H      0.932420000000     0.089276666667     0.581020000000     0.0458239  
H3       H      0.819430000000     0.080710000000     0.583873333333     0.0978457  
H1       H      0.769262500000     0.008526666667     0.456446666667     0.330639   
Al1      Al     0.875000000000     0.166666666667     0.666666666667     5.88208    
Al2      Al     0.750000000000     0.166666666667     0.666666666667     5.27503    
O1       O      0.795030000000     0.172436666667     0.980050000000    -2.18284    
O2       O      0.811762500000     0.133383333333     0.705303333333    -1.17032    
O3       O      0.884610000000     0.122923333333     0.694793333333    -1.30741    
O4       O      0.862650000000     0.031100000000     0.793223333333    -1.5034     
O5       O      0.945690000000     0.037780000000     0.799806666667    -1.32862    
C1       C      0.857442500000     0.115663333333     0.711273333333     0.793888   
C2       C      0.888610000000     0.088320000000     0.740676666667    -0.137042   
C3       C      0.863945000000     0.075973333333     0.757936666667    -0.34478    
C4       C      0.894672500000     0.046996666667     0.786800000000     1.21458    
H2       H      0.932420000000     0.077390000000     0.747686666667     0.0473124  
H3       H      0.819430000000     0.085956666667     0.750540000000     0.0967256  
H1       H      0.769262500000     0.158140000000     0.956446666667     0.341287   
Al1      Al     0.875000000000     0.000000000000     0.833333333333     5.79057    
Al2      Al     0.750000000000     0.000000000000     0.833333333333     5.19152    
O1       O      0.954970000000     0.005770000000     0.853283333333    -2.17484    
O2       O      0.938237500000     0.300050000000     0.794696666667    -1.13966    
O3       O      0.865390000000     0.289590000000     0.805206666667    -1.3044     
O4       O      0.887350000000     0.197766666667     0.706776666667    -1.52312    
O5       O      0.804310000000     0.204446666667     0.700193333333    -1.37921    
C1       C      0.892557500000     0.282330000000     0.788726666667     0.783094   
C2       C      0.861390000000     0.254986666667     0.759323333333    -0.126749   
C3       C      0.886055000000     0.242640000000     0.742063333333    -0.3575     
C4       C      0.855327500000     0.213663333333     0.713200000000     1.24332    
H2       H      0.817580000000     0.244056666667     0.752313333333     0.039811   
H3       H      0.930570000000     0.252623333333     0.749460000000     0.105065   
H1       H      0.980737500000     0.324806666667     0.876886666667     0.3529     
O1       O      0.954970000000     0.160896666667     0.686616666667    -2.19327    
O2       O      0.938237500000     0.199950000000     0.961363333333    -1.11982    
O3       O      0.865390000000     0.210410000000     0.971873333333    -1.28118    
O4       O      0.887350000000     0.302233333333     0.873443333333    -1.52294    
O5       O      0.804310000000     0.295553333333     0.866860000000    -1.37928    
C1       C      0.892557500000     0.217670000000     0.955393333333     0.77372    
C2       C      0.861390000000     0.245013333333     0.925990000000    -0.121964   
C3       C      0.886055000000     0.257360000000     0.908730000000    -0.358719   
C4       C      0.855327500000     0.286336666667     0.879866666667     1.24438    
H2       H      0.817580000000     0.255943333333     0.918980000000     0.0396903  
H3       H      0.930570000000     0.247376666667     0.916126666667     0.106536   
H1       H      0.980737500000     0.175193333333     0.710220000000     0.352267   
O1       O      0.795030000000     0.327563333333     0.813383333333    -2.2236     
O2       O      0.811762500000     0.033283333333     0.871970000000    -1.15858    
O3       O      0.884610000000     0.043743333333     0.861460000000    -1.29178    
O4       O      0.862650000000     0.135566666667     0.959890000000    -1.49527    
O5       O      0.945690000000     0.128886666667     0.966473333333    -1.32129    
C1       C      0.857442500000     0.051003333333     0.877940000000     0.784949   
C2       C      0.888610000000     0.078346666667     0.907343333333    -0.134152   
C3       C      0.863945000000     0.090693333333     0.924603333333    -0.343758   
C4       C      0.894672500000     0.119670000000     0.953466666667     1.21348    
H2       H      0.932420000000     0.089276666667     0.914353333333     0.0477499  
H3       H      0.819430000000     0.080710000000     0.917206666667     0.097505   
H1       H      0.769262500000     0.008526666667     0.789780000000     0.330606   
Al1      Al     0.875000000000     0.500000000000     0.000000000000     5.78858    
Al2      Al     0.750000000000     0.500000000000     0.000000000000     5.1892     
O1       O      0.795030000000     0.505770000000     0.313383333333    -2.22332    
O2       O      0.811762500000     0.466716666667     0.038636666667    -1.15679    
O3       O      0.884610000000     0.456256666667     0.028126666667    -1.29299    
O4       O      0.862650000000     0.364433333333     0.126556666667    -1.52054    
O5       O      0.945690000000     0.371113333333     0.133140000000    -1.34478    
C1       C      0.857442500000     0.448996666667     0.044606666667     0.783385   
C2       C      0.888610000000     0.421653333333     0.074010000000    -0.131524   
C3       C      0.863945000000     0.409306666667     0.091270000000    -0.350982   
C4       C      0.894672500000     0.380330000000     0.120133333333     1.22915    
H2       H      0.932420000000     0.410723333333     0.081020000000     0.0456403  
H3       H      0.819430000000     0.419290000000     0.083873333333     0.0980844  
H1       H      0.769262500000     0.491473333333     0.289780000000     0.344829   
Al1      Al     0.875000000000     0.333333333333     0.166666666667     5.8825     
Al2      Al     0.750000000000     0.333333333333     0.166666666667     5.27567    
O1       O      0.954970000000     0.339103333333     0.186616666667    -2.19343    
O2       O      0.938237500000     0.633383333333     0.128030000000    -1.14003    
O3       O      0.865390000000     0.622923333333     0.138540000000    -1.30456    
O4       O      0.887350000000     0.531100000000     0.040110000000    -1.50573    
O5       O      0.804310000000     0.537780000000     0.033526666667    -1.36458    
C1       C      0.892557500000     0.615663333333     0.122060000000     0.783721   
C2       C      0.861390000000     0.588320000000     0.092656666667    -0.129463   
C3       C      0.886055000000     0.575973333333     0.075396666667    -0.35312    
C4       C      0.855327500000     0.546996666667     0.046533333333     1.22809    
H2       H      0.817580000000     0.577390000000     0.085646666667     0.04031    
H3       H      0.930570000000     0.585956666667     0.082793333333     0.103464   
H1       H      0.980737500000     0.658140000000     0.210220000000     0.352224   
O1       O      0.954970000000     0.494230000000     0.019950000000    -2.16681    
O2       O      0.938237500000     0.533283333333     0.294696666667    -1.13926    
O3       O      0.865390000000     0.543743333333     0.305206666667    -1.30425    
O4       O      0.887350000000     0.635566666667     0.206776666667    -1.52316    
O5       O      0.804310000000     0.628886666667     0.200193333333    -1.37925    
C1       C      0.892557500000     0.551003333333     0.288726666667     0.782944   
C2       C      0.861390000000     0.578346666667     0.259323333333    -0.126656   
C3       C      0.886055000000     0.590693333333     0.242063333333    -0.357525   
C4       C      0.855327500000     0.619670000000     0.213200000000     1.24337    
H2       H      0.817580000000     0.589276666667     0.252313333333     0.0397884  
H3       H      0.930570000000     0.580710000000     0.249460000000     0.105146   
H1       H      0.980737500000     0.508526666667     0.043553333333     0.349574   
O1       O      0.795030000000     0.660896666667     0.146716666667    -2.22331    
O2       O      0.811762500000     0.366616666667     0.205303333333    -1.17       
O3       O      0.884610000000     0.377076666667     0.194793333333    -1.30683    
O4       O      0.862650000000     0.468900000000     0.293223333333    -1.51992    
O5       O      0.945690000000     0.462220000000     0.299806666667    -1.34417    
C1       C      0.857442500000     0.384336666667     0.211273333333     0.793459   
C2       C      0.888610000000     0.411680000000     0.240676666667    -0.13433    
C3       C      0.863945000000     0.424026666667     0.257936666667    -0.34896    
C4       C      0.894672500000     0.453003333333     0.286800000000     1.22851    
H2       H      0.932420000000     0.422610000000     0.247686666667     0.0469978  
H3       H      0.819430000000     0.414043333333     0.250540000000     0.0980035  
H1       H      0.769262500000     0.341860000000     0.123113333333     0.344389   
Al1      Al     0.875000000000     0.500000000000     0.333333333333     5.88217    
Al2      Al     0.750000000000     0.500000000000     0.333333333333     5.2752     
O1       O      0.795030000000     0.505770000000     0.646716666667    -2.22323    
O2       O      0.811762500000     0.466716666667     0.371970000000    -1.17       
O3       O      0.884610000000     0.456256666667     0.361460000000    -1.30686    
O4       O      0.862650000000     0.364433333333     0.459890000000    -1.51995    
O5       O      0.945690000000     0.371113333333     0.466473333333    -1.34416    
C1       C      0.857442500000     0.448996666667     0.377940000000     0.793375   
C2       C      0.888610000000     0.421653333333     0.407343333333    -0.134391   
C3       C      0.863945000000     0.409306666667     0.424603333333    -0.349011   
C4       C      0.894672500000     0.380330000000     0.453466666667     1.22846    
H2       H      0.932420000000     0.410723333333     0.414353333333     0.046947   
H3       H      0.819430000000     0.419290000000     0.417206666667     0.0979408  
H1       H      0.769262500000     0.491473333333     0.623113333333     0.344734   
Al1      Al     0.875000000000     0.333333333333     0.500000000000     5.88214    
Al2      Al     0.750000000000     0.333333333333     0.500000000000     5.27522    
O1       O      0.954970000000     0.339103333333     0.519950000000    -2.19315    
O2       O      0.938237500000     0.633383333333     0.461363333333    -1.13922    
O3       O      0.865390000000     0.622923333333     0.471873333333    -1.30422    
O4       O      0.887350000000     0.531100000000     0.373443333333    -1.52321    
O5       O      0.804310000000     0.537780000000     0.366860000000    -1.37929    
C1       C      0.892557500000     0.615663333333     0.455393333333     0.782847   
C2       C      0.861390000000     0.588320000000     0.425990000000    -0.126693   
C3       C      0.886055000000     0.575973333333     0.408730000000    -0.357603   
C4       C      0.855327500000     0.546996666667     0.379866666667     1.24334    
H2       H      0.817580000000     0.577390000000     0.418980000000     0.0397315  
H3       H      0.930570000000     0.585956666667     0.416126666667     0.105091   
H1       H      0.980737500000     0.658140000000     0.543553333333     0.352149   
O1       O      0.954970000000     0.494230000000     0.353283333333    -2.19319    
O2       O      0.938237500000     0.533283333333     0.628030000000    -1.1393     
O3       O      0.865390000000     0.543743333333     0.638540000000    -1.30427    
O4       O      0.887350000000     0.635566666667     0.540110000000    -1.52317    
O5       O      0.804310000000     0.628886666667     0.533526666667    -1.37926    
C1       C      0.892557500000     0.551003333333     0.622060000000     0.782843   
C2       C      0.861390000000     0.578346666667     0.592656666667    -0.126746   
C3       C      0.886055000000     0.590693333333     0.575396666667    -0.35762    
C4       C      0.855327500000     0.619670000000     0.546533333333     1.24325    
H2       H      0.817580000000     0.589276666667     0.585646666667     0.0396996  
H3       H      0.930570000000     0.580710000000     0.582793333333     0.105045   
H1       H      0.980737500000     0.508526666667     0.376886666667     0.352222   
O1       O      0.795030000000     0.660896666667     0.480050000000    -2.22322    
O2       O      0.811762500000     0.366616666667     0.538636666667    -1.17002    
O3       O      0.884610000000     0.377076666667     0.528126666667    -1.30689    
O4       O      0.862650000000     0.468900000000     0.626556666667    -1.51993    
O5       O      0.945690000000     0.462220000000     0.633140000000    -1.34421    
C1       C      0.857442500000     0.384336666667     0.544606666667     0.79335    
C2       C      0.888610000000     0.411680000000     0.574010000000    -0.134426   
C3       C      0.863945000000     0.424026666667     0.591270000000    -0.349049   
C4       C      0.894672500000     0.453003333333     0.620133333333     1.2284     
H2       H      0.932420000000     0.422610000000     0.581020000000     0.0468986  
H3       H      0.819430000000     0.414043333333     0.583873333333     0.0979111  
H1       H      0.769262500000     0.341860000000     0.456446666667     0.34479    
Al1      Al     0.875000000000     0.500000000000     0.666666666667     5.88176    
Al2      Al     0.750000000000     0.500000000000     0.666666666667     5.27481    
O1       O      0.795030000000     0.505770000000     0.980050000000    -2.18276    
O2       O      0.811762500000     0.466716666667     0.705303333333    -1.16998    
O3       O      0.884610000000     0.456256666667     0.694793333333    -1.30686    
O4       O      0.862650000000     0.364433333333     0.793223333333    -1.5202     
O5       O      0.945690000000     0.371113333333     0.799806666667    -1.34465    
C1       C      0.857442500000     0.448996666667     0.711273333333     0.793264   
C2       C      0.888610000000     0.421653333333     0.740676666667    -0.134385   
C3       C      0.863945000000     0.409306666667     0.757936666667    -0.349182   
C4       C      0.894672500000     0.380330000000     0.786800000000     1.2287     
H2       H      0.932420000000     0.410723333333     0.747686666667     0.0468228  
H3       H      0.819430000000     0.419290000000     0.750540000000     0.0979198  
H1       H      0.769262500000     0.491473333333     0.956446666667     0.341255   
Al1      Al     0.875000000000     0.333333333333     0.833333333333     5.88282    
Al2      Al     0.750000000000     0.333333333333     0.833333333333     5.27585    
O1       O      0.954970000000     0.339103333333     0.853283333333    -2.19357    
O2       O      0.938237500000     0.633383333333     0.794696666667    -1.13967    
O3       O      0.865390000000     0.622923333333     0.805206666667    -1.30443    
O4       O      0.887350000000     0.531100000000     0.706776666667    -1.52319    
O5       O      0.804310000000     0.537780000000     0.700193333333    -1.37927    
C1       C      0.892557500000     0.615663333333     0.788726666667     0.782982   
C2       C      0.861390000000     0.588320000000     0.759323333333    -0.126833   
C3       C      0.886055000000     0.575973333333     0.742063333333    -0.35761    
C4       C      0.855327500000     0.546996666667     0.713200000000     1.24322    
H2       H      0.817580000000     0.577390000000     0.752313333333     0.0397053  
H3       H      0.930570000000     0.585956666667     0.749460000000     0.104975   
H1       H      0.980737500000     0.658140000000     0.876886666667     0.352825   
O1       O      0.954970000000     0.494230000000     0.686616666667    -2.19312    
O2       O      0.938237500000     0.533283333333     0.961363333333    -1.1199     
O3       O      0.865390000000     0.543743333333     0.971873333333    -1.28122    
O4       O      0.887350000000     0.635566666667     0.873443333333    -1.52294    
O5       O      0.804310000000     0.628886666667     0.866860000000    -1.37929    
C1       C      0.892557500000     0.551003333333     0.955393333333     0.773621   
C2       C      0.861390000000     0.578346666667     0.925990000000    -0.122068   
C3       C      0.886055000000     0.590693333333     0.908730000000    -0.358802   
C4       C      0.855327500000     0.619670000000     0.879866666667     1.24425    
H2       H      0.817580000000     0.589276666667     0.918980000000     0.0396057  
H3       H      0.930570000000     0.580710000000     0.916126666667     0.106435   
H1       H      0.980737500000     0.508526666667     0.710220000000     0.352118   
O1       O      0.795030000000     0.660896666667     0.813383333333    -2.22352    
O2       O      0.811762500000     0.366616666667     0.871970000000    -1.16989    
O3       O      0.884610000000     0.377076666667     0.861460000000    -1.30693    
O4       O      0.862650000000     0.468900000000     0.959890000000    -1.49501    
O5       O      0.945690000000     0.462220000000     0.966473333333    -1.32081    
C1       C      0.857442500000     0.384336666667     0.877940000000     0.794728   
C2       C      0.888610000000     0.411680000000     0.907343333333    -0.136769   
C3       C      0.863945000000     0.424026666667     0.924603333333    -0.341901   
C4       C      0.894672500000     0.453003333333     0.953466666667     1.21308    
H2       H      0.932420000000     0.422610000000     0.914353333333     0.0488247  
H3       H      0.819430000000     0.414043333333     0.917206666667     0.0975703  
H1       H      0.769262500000     0.341860000000     0.789780000000     0.344755   
Al1      Al     0.875000000000     0.833333333333     0.000000000000     5.78911    
Al2      Al     0.750000000000     0.833333333333     0.000000000000     5.19006    
O1       O      0.795030000000     0.839103333333     0.313383333333    -2.22336    
O2       O      0.811762500000     0.800050000000     0.038636666667    -1.15701    
O3       O      0.884610000000     0.789590000000     0.028126666667    -1.29317    
O4       O      0.862650000000     0.697766666667     0.126556666667    -1.52052    
O5       O      0.945690000000     0.704446666667     0.133140000000    -1.34475    
C1       C      0.857442500000     0.782330000000     0.044606666667     0.78342    
C2       C      0.888610000000     0.754986666667     0.074010000000    -0.131607   
C3       C      0.863945000000     0.742640000000     0.091270000000    -0.350998   
C4       C      0.894672500000     0.713663333333     0.120133333333     1.22906    
H2       H      0.932420000000     0.744056666667     0.081020000000     0.0456021  
H3       H      0.819430000000     0.752623333333     0.083873333333     0.0980346  
H1       H      0.769262500000     0.824806666667     0.289780000000     0.344852   
Al1      Al     0.875000000000     0.666666666667     0.166666666667     5.88211    
Al2      Al     0.750000000000     0.666666666667     0.166666666667     5.27528    
O1       O      0.954970000000     0.672436666667     0.186616666667    -2.19333    
O2       O      0.938237500000     0.966716666667     0.128030000000    -1.11867    
O3       O      0.865390000000     0.956256666667     0.138540000000    -1.28329    
O4       O      0.887350000000     0.864433333333     0.040110000000    -1.50578    
O5       O      0.804310000000     0.871113333333     0.033526666667    -1.36449    
C1       C      0.892557500000     0.948996666667     0.122060000000     0.774436   
C2       C      0.861390000000     0.921653333333     0.092656666667    -0.124566   
C3       C      0.886055000000     0.909306666667     0.075396666667    -0.354344   
C4       C      0.855327500000     0.880330000000     0.046533333333     1.22932    
H2       H      0.817580000000     0.910723333333     0.085646666667     0.0399974  
H3       H      0.930570000000     0.919290000000     0.082793333333     0.105145   
H1       H      0.980737500000     0.991473333333     0.210220000000     0.360496   
O1       O      0.954970000000     0.827563333333     0.019950000000    -2.16708    
O2       O      0.938237500000     0.866616666667     0.294696666667    -1.13939    
O3       O      0.865390000000     0.877076666667     0.305206666667    -1.30391    
O4       O      0.887350000000     0.968900000000     0.206776666667    -1.49801    
O5       O      0.804310000000     0.962220000000     0.200193333333    -1.3572     
C1       C      0.892557500000     0.884336666667     0.288726666667     0.784534   
C2       C      0.861390000000     0.911680000000     0.259323333333    -0.129031   
C3       C      0.886055000000     0.924026666667     0.242063333333    -0.350351   
C4       C      0.855327500000     0.953003333333     0.213200000000     1.22714    
H2       H      0.817580000000     0.922610000000     0.252313333333     0.0418912  
H3       H      0.930570000000     0.914043333333     0.249460000000     0.1044     
H1       H      0.980737500000     0.841860000000     0.043553333333     0.349773   
O1       O      0.795030000000     0.994230000000     0.146716666667    -2.17575    
O2       O      0.811762500000     0.699950000000     0.205303333333    -1.16998    
O3       O      0.884610000000     0.710410000000     0.194793333333    -1.3068     
O4       O      0.862650000000     0.802233333333     0.293223333333    -1.5201     
O5       O      0.945690000000     0.795553333333     0.299806666667    -1.3444     
C1       C      0.857442500000     0.717670000000     0.211273333333     0.793377   
C2       C      0.888610000000     0.745013333333     0.240676666667    -0.13434    
C3       C      0.863945000000     0.757360000000     0.257936666667    -0.349054   
C4       C      0.894672500000     0.786336666667     0.286800000000     1.22859    
H2       H      0.932420000000     0.755943333333     0.247686666667     0.0469523  
H3       H      0.819430000000     0.747376666667     0.250540000000     0.0979712  
H1       H      0.769262500000     0.675193333333     0.123113333333     0.344328   
Al1      Al     0.875000000000     0.833333333333     0.333333333333     5.8827     
Al2      Al     0.750000000000     0.833333333333     0.333333333333     5.27605    
O1       O      0.795030000000     0.839103333333     0.646716666667    -2.22327    
O2       O      0.811762500000     0.800050000000     0.371970000000    -1.17022    
O3       O      0.884610000000     0.789590000000     0.361460000000    -1.30703    
O4       O      0.862650000000     0.697766666667     0.459890000000    -1.51992    
O5       O      0.945690000000     0.704446666667     0.466473333333    -1.34413    
C1       C      0.857442500000     0.782330000000     0.377940000000     0.793409   
C2       C      0.888610000000     0.754986666667     0.407343333333    -0.134474   
C3       C      0.863945000000     0.742640000000     0.424603333333    -0.349027   
C4       C      0.894672500000     0.713663333333     0.453466666667     1.22836    
H2       H      0.932420000000     0.744056666667     0.414353333333     0.0469088  
H3       H      0.819430000000     0.752623333333     0.417206666667     0.0978911  
H1       H      0.769262500000     0.824806666667     0.623113333333     0.344757   
Al1      Al     0.875000000000     0.666666666667     0.500000000000     5.88175    
Al2      Al     0.750000000000     0.666666666667     0.500000000000     5.27482    
O1       O      0.954970000000     0.672436666667     0.519950000000    -2.19305    
O2       O      0.938237500000     0.966716666667     0.461363333333    -1.11786    
O3       O      0.865390000000     0.956256666667     0.471873333333    -1.28295    
O4       O      0.887350000000     0.864433333333     0.373443333333    -1.52325    
O5       O      0.804310000000     0.871113333333     0.366860000000    -1.3792     
C1       C      0.892557500000     0.948996666667     0.455393333333     0.773561   
C2       C      0.861390000000     0.921653333333     0.425990000000    -0.121795   
C3       C      0.886055000000     0.909306666667     0.408730000000    -0.358826   
C4       C      0.855327500000     0.880330000000     0.379866666667     1.24458    
H2       H      0.817580000000     0.910723333333     0.418980000000     0.039419   
H3       H      0.930570000000     0.919290000000     0.416126666667     0.106773   
H1       H      0.980737500000     0.991473333333     0.543553333333     0.360422   
O1       O      0.954970000000     0.827563333333     0.353283333333    -2.19346    
O2       O      0.938237500000     0.866616666667     0.628030000000    -1.13944    
O3       O      0.865390000000     0.877076666667     0.638540000000    -1.30393    
O4       O      0.887350000000     0.968900000000     0.540110000000    -1.49802    
O5       O      0.804310000000     0.962220000000     0.533526666667    -1.35721    
C1       C      0.892557500000     0.884336666667     0.622060000000     0.784434   
C2       C      0.861390000000     0.911680000000     0.592656666667    -0.129121   
C3       C      0.886055000000     0.924026666667     0.575396666667    -0.350445   
C4       C      0.855327500000     0.953003333333     0.546533333333     1.22702    
H2       H      0.817580000000     0.922610000000     0.585646666667     0.0418026  
H3       H      0.930570000000     0.914043333333     0.582793333333     0.104299   
H1       H      0.980737500000     0.841860000000     0.376886666667     0.352421   
O1       O      0.795030000000     0.994230000000     0.480050000000    -2.17565    
O2       O      0.811762500000     0.699950000000     0.538636666667    -1.17       
O3       O      0.884610000000     0.710410000000     0.528126666667    -1.30686    
O4       O      0.862650000000     0.802233333333     0.626556666667    -1.5201     
O5       O      0.945690000000     0.795553333333     0.633140000000    -1.34444    
C1       C      0.857442500000     0.717670000000     0.544606666667     0.793269   
C2       C      0.888610000000     0.745013333333     0.574010000000    -0.134436   
C3       C      0.863945000000     0.757360000000     0.591270000000    -0.349143   
C4       C      0.894672500000     0.786336666667     0.620133333333     1.22848    
H2       H      0.932420000000     0.755943333333     0.581020000000     0.0468531  
H3       H      0.819430000000     0.747376666667     0.583873333333     0.0978789  
H1       H      0.769262500000     0.675193333333     0.456446666667     0.344728   
Al1      Al     0.875000000000     0.833333333333     0.666666666667     5.88228    
Al2      Al     0.750000000000     0.833333333333     0.666666666667     5.27566    
O1       O      0.795030000000     0.839103333333     0.980050000000    -2.18281    
O2       O      0.811762500000     0.800050000000     0.705303333333    -1.1702     
O3       O      0.884610000000     0.789590000000     0.694793333333    -1.30704    
O4       O      0.862650000000     0.697766666667     0.793223333333    -1.52017    
O5       O      0.945690000000     0.704446666667     0.799806666667    -1.34462    
C1       C      0.857442500000     0.782330000000     0.711273333333     0.793298   
C2       C      0.888610000000     0.754986666667     0.740676666667    -0.134468   
C3       C      0.863945000000     0.742640000000     0.757936666667    -0.349197   
C4       C      0.894672500000     0.713663333333     0.786800000000     1.2286     
H2       H      0.932420000000     0.744056666667     0.747686666667     0.0467847  
H3       H      0.819430000000     0.752623333333     0.750540000000     0.0978702  
H1       H      0.769262500000     0.824806666667     0.956446666667     0.341279   
Al1      Al     0.875000000000     0.666666666667     0.833333333333     5.88243    
Al2      Al     0.750000000000     0.666666666667     0.833333333333     5.27545    
O1       O      0.954970000000     0.672436666667     0.853283333333    -2.19347    
O2       O      0.938237500000     0.966716666667     0.794696666667    -1.11832    
O3       O      0.865390000000     0.956256666667     0.805206666667    -1.28317    
O4       O      0.887350000000     0.864433333333     0.706776666667    -1.52323    
O5       O      0.804310000000     0.871113333333     0.700193333333    -1.37917    
C1       C      0.892557500000     0.948996666667     0.788726666667     0.773698   
C2       C      0.861390000000     0.921653333333     0.759323333333    -0.121936   
C3       C      0.886055000000     0.909306666667     0.742063333333    -0.358833   
C4       C      0.855327500000     0.880330000000     0.713200000000     1.24446    
H2       H      0.817580000000     0.910723333333     0.752313333333     0.0393928  
H3       H      0.930570000000     0.919290000000     0.749460000000     0.106657   
H1       H      0.980737500000     0.991473333333     0.876886666667     0.361096   
O1       O      0.954970000000     0.827563333333     0.686616666667    -2.19339    
O2       O      0.938237500000     0.866616666667     0.961363333333    -1.12004    
O3       O      0.865390000000     0.877076666667     0.971873333333    -1.28089    
O4       O      0.887350000000     0.968900000000     0.873443333333    -1.49779    
O5       O      0.804310000000     0.962220000000     0.866860000000    -1.35725    
C1       C      0.892557500000     0.884336666667     0.955393333333     0.775213   
C2       C      0.861390000000     0.911680000000     0.925990000000    -0.124444   
C3       C      0.886055000000     0.924026666667     0.908730000000    -0.351628   
C4       C      0.855327500000     0.953003333333     0.879866666667     1.22802    
H2       H      0.817580000000     0.922610000000     0.918980000000     0.0417082  
H3       H      0.930570000000     0.914043333333     0.916126666667     0.10569    
H1       H      0.980737500000     0.841860000000     0.710220000000     0.352317   
O1       O      0.795030000000     0.994230000000     0.813383333333    -2.17595    
O2       O      0.811762500000     0.699950000000     0.871970000000    -1.16987    
O3       O      0.884610000000     0.710410000000     0.861460000000    -1.3069     
O4       O      0.862650000000     0.802233333333     0.959890000000    -1.49519    
O5       O      0.945690000000     0.795553333333     0.966473333333    -1.32105    
C1       C      0.857442500000     0.717670000000     0.877940000000     0.794647   
C2       C      0.888610000000     0.745013333333     0.907343333333    -0.136779   
C3       C      0.863945000000     0.757360000000     0.924603333333    -0.341995   
C4       C      0.894672500000     0.786336666667     0.953466666667     1.21316    
H2       H      0.932420000000     0.755943333333     0.914353333333     0.0487791  
H3       H      0.819430000000     0.747376666667     0.917206666667     0.0975381  
H1       H      0.769262500000     0.675193333333     0.789780000000     0.344694   


