data_MOF-303

_audit_creation_method RASPA-1.0
_audit_creation_date 2025-7-10
_audit_author_name ''

_citation_id                 1
_citation_year               10.1126/science.abj0890

_cell_length_a    36.1314
_cell_length_b    44.8947
_cell_length_c    42.2382
_cell_angle_alpha 90
_cell_angle_beta  101.929
_cell_angle_gamma 90
_cell_volume      67035.3

_symmetry_cell_setting          monoclinic
_symmetry_space_group_name_Hall 'P 1'
_symmetry_space_group_name_H-M  'P 1'
_symmetry_Int_Tables_number     1

_symmetry_equiv_pos_as_xyz 'x,y,z'

loop_
_atom_site_label
_atom_site_type_symbol
_atom_site_fract_x
_atom_site_fract_y
_atom_site_fract_z
_atom_site_charge
Al2      Al     0.166666666667     0.166666666667     0.166666666667     7.1232     
Al1      Al     0.245060000000     0.144516666667     0.145003333333     7.33899    
Al3      Al     0.000000000000     0.166666666667     0.166666666667     7.85368    
O4       O      0.207776666667     0.116296666667     0.127153333333    -1.74841    
O2       O      0.216686666667     0.156506666667     0.174520000000    -3.20239    
H2       H      0.229463000000     0.157477333333     0.195996666667     0.821607   
O7       O      0.270813333333     0.129643333333     0.113736666667    -1.78287    
O1       O      0.282370000000     0.171726666667     0.160420000000    -3.39327    
H1       H      0.274220666667     0.190387333333     0.165681000000     0.87711    
O5       O      0.110493333333     0.007536666667     0.051850000000    -1.77071    
O9       O      0.269620000000     0.051303333333     0.009093333333    -1.65946    
O3       O      0.153183333333     0.133740000000     0.137366666667    -1.69568    
O6       O      0.160703333333     0.025593333333     0.034966666667    -1.64859    
O10      O      0.330363333333     0.036990000000     0.020656666667    -1.81821    
O8       O      0.330263333333     0.146240000000     0.126810000000    -1.8723     
N4       N      0.015300000000     0.080933333333     0.064866666667    -0.0823976  
H4       H      0.034561000000     0.071771666667     0.060508666667     0.0914956  
N1       N      0.115200000000     0.087066666667     0.100000000000    -0.0767751  
H1A      H      0.099957666667     0.097941666667     0.108199333333     0.0704255  
N2       N      0.104700000000     0.063400000000     0.081033333333    -0.0327737  
N3       N      0.017166666667     0.101600000000     0.087533333333    -0.036753   
C1       C      0.172700000000     0.115700000000     0.124766666667     1.29141    
C6       C      0.304600000000     0.130466666667     0.110866666667     1.38182    
C5       C      0.135733333333     0.026700000000     0.051733333333     1.2592     
C3       C      0.167133333333     0.070433333333     0.086866666667     0.36943    
H3       H      0.192073666667     0.068331333333     0.084659666667    -0.10541    
C10      C      0.303466666667     0.053033333333     0.024500000000     1.29435    
C8       C      0.289933333333     0.094033333333     0.062933333333     0.395254   
H8       H      0.263718666667     0.095613000000     0.057306333333    -0.108341   
C2       C      0.152766666667     0.091566666667     0.104600000000    -0.393025   
C9       C      0.312600000000     0.076133333333     0.049533333333    -0.416735   
C7       C      0.314566666667     0.109600000000     0.087066666667    -0.422746   
C4       C      0.136466666667     0.052933333333     0.072966666667    -0.399656   
Al2      Al     0.166666666667     0.000000000000     0.000000000000     6.77149    
Al1      Al     0.088273333333     0.311183333333     0.021663333333     7.32363    
Al3      Al     0.000000000000     0.000000000000     0.000000000000     7.46553    
O4       O      0.125556666667     0.282963333333     0.039513333333    -1.74457    
O2       O      0.116646666667     0.323173333333     0.325480000000    -3.20129    
H2       H      0.103870333333     0.324144000000     0.304003333333     0.820872   
O7       O      0.062520000000     0.296310000000     0.052930000000    -1.77919    
O1       O      0.050963333333     0.005060000000     0.006246666667    -3.35751    
H1       H      0.059112666667     0.023720666667     0.000985666667     0.86182    
O5       O      0.222840000000     0.174203333333     0.114816666667    -1.72907    
O9       O      0.063713333333     0.217970000000     0.157573333333    -1.71458    
O3       O      0.180150000000     0.300406666667     0.029300000000    -1.6931     
O6       O      0.172630000000     0.192260000000     0.131700000000    -1.69541    
O10      O      0.002970000000     0.203656666667     0.146010000000    -1.88075    
O8       O      0.003070000000     0.312906666667     0.039856666667    -1.86315    
N4       N      0.318033333333     0.247600000000     0.101800000000    -0.0722602  
H4       H      0.298772333333     0.238438333333     0.106158000000     0.0932168  
N1       N      0.218133333333     0.253733333333     0.066666666667    -0.0763855  
H1A      H      0.233375666667     0.264608333333     0.058467333333     0.0722799  
N2       N      0.228633333333     0.230066666667     0.085633333333    -0.0300505  
N3       N      0.316166666667     0.268266666667     0.079133333333    -0.0287449  
C1       C      0.160633333333     0.282366666667     0.041900000000     1.29019    
C6       C      0.028733333333     0.297133333333     0.055800000000     1.38014    
C5       C      0.197600000000     0.193366666667     0.114933333333     1.27185    
C3       C      0.166200000000     0.237100000000     0.079800000000     0.372178   
H3       H      0.141259666667     0.234998000000     0.082007000000    -0.104045   
C10      C      0.029866666667     0.219700000000     0.142166666667     1.34126    
C8       C      0.043400000000     0.260700000000     0.103733333333     0.411666   
H8       H      0.069614666667     0.262279666667     0.109360333333    -0.114367   
C2       C      0.180566666667     0.258233333333     0.062066666667    -0.39129    
C9       C      0.020733333333     0.242800000000     0.117133333333    -0.439393   
C7       C      0.018766666667     0.276266666667     0.079600000000    -0.433902   
C4       C      0.196866666667     0.219600000000     0.093700000000    -0.398757   
Al1      Al     0.088273333333     0.188816666667     0.188330000000     7.33276    
O4       O      0.125556666667     0.217036666667     0.206180000000    -1.74605    
O2       O      0.116646666667     0.176826666667     0.158813333333    -3.20117    
H2       H      0.103870333333     0.175856000000     0.137336666667     0.820847   
O7       O      0.062520000000     0.203690000000     0.219596666667    -1.78088    
O1       O      0.050963333333     0.161606666667     0.172913333333    -3.37894    
H1       H      0.059112666667     0.142946000000     0.167652333333     0.871027   
O5       O      0.222840000000     0.325796666667     0.281483333333    -1.72947    
O9       O      0.063713333333     0.282030000000     0.324240000000    -1.71466    
O3       O      0.180150000000     0.199593333333     0.195966666667    -1.69467    
O6       O      0.172630000000     0.307740000000     0.298366666667    -1.69561    
O10      O      0.002970000000     0.296343333333     0.312676666667    -1.88096    
O8       O      0.003070000000     0.187093333333     0.206523333333    -1.86483    
N4       N      0.318033333333     0.252400000000     0.268466666667    -0.0722215  
H4       H      0.298772333333     0.261561666667     0.272824666667     0.0932443  
N1       N      0.218133333333     0.246266666667     0.233333333333    -0.0763198  
H1A      H      0.233375666667     0.235391666667     0.225134000000     0.0724678  
N2       N      0.228633333333     0.269933333333     0.252300000000    -0.030016   
N3       N      0.316166666667     0.231733333333     0.245800000000    -0.028528   
C1       C      0.160633333333     0.217633333333     0.208566666667     1.2916     
C6       C      0.028733333333     0.202866666667     0.222466666667     1.38162    
C5       C      0.197600000000     0.306633333333     0.281600000000     1.27194    
C3       C      0.166200000000     0.262900000000     0.246466666667     0.37246    
H3       H      0.141259666667     0.265002000000     0.248673666667    -0.104116   
C10      C      0.029866666667     0.280300000000     0.308833333333     1.3414     
C8       C      0.043400000000     0.239300000000     0.270400000000     0.411961   
H8       H      0.069614666667     0.237720333333     0.276027000000    -0.114357   
C2       C      0.180566666667     0.241766666667     0.228733333333    -0.391514   
C9       C      0.020733333333     0.257200000000     0.283800000000    -0.439445   
C7       C      0.018766666667     0.223733333333     0.246266666667    -0.434091   
C4       C      0.196866666667     0.280400000000     0.260366666667    -0.398904   
Al1      Al     0.245060000000     0.022150000000     0.311670000000     7.03818    
O4       O      0.207776666667     0.050370000000     0.293820000000    -1.68986    
O2       O      0.216686666667     0.010160000000     0.007853333333    -3.08867    
H2       H      0.229463000000     0.009189333333     0.029330000000     0.783305   
O7       O      0.270813333333     0.037023333333     0.280403333333    -1.73021    
O1       O      0.282370000000     0.328273333333     0.327086666667    -3.39381    
H1       H      0.274220666667     0.309612666667     0.332347666667     0.877185   
O5       O      0.110493333333     0.159130000000     0.218516666667    -1.72822    
O9       O      0.269620000000     0.115363333333     0.175760000000    -1.71757    
O3       O      0.153183333333     0.032926666667     0.304033333333    -1.64097    
O6       O      0.160703333333     0.141073333333     0.201633333333    -1.69568    
O10      O      0.330363333333     0.129676666667     0.187323333333    -1.88882    
O8       O      0.330263333333     0.020426666667     0.293476666667    -1.81166    
N4       N      0.015300000000     0.085733333333     0.231533333333    -0.0795808  
H4       H      0.034561000000     0.094895000000     0.227175333333     0.0913171  
N1       N      0.115200000000     0.079600000000     0.266666666667    -0.0787922  
H1A      H      0.099957666667     0.068725000000     0.274866000000     0.0692875  
N2       N      0.104700000000     0.103266666667     0.247700000000    -0.0316736  
N3       N      0.017166666667     0.065066666667     0.254200000000    -0.0397257  
C1       C      0.172700000000     0.050966666667     0.291433333333     1.24834    
C6       C      0.304600000000     0.036200000000     0.277533333333     1.33587    
C5       C      0.135733333333     0.139966666667     0.218400000000     1.27022    
C3       C      0.167133333333     0.096233333333     0.253533333333     0.363681   
H3       H      0.192073666667     0.098335333333     0.251326333333    -0.101798   
C10      C      0.303466666667     0.113633333333     0.191166666667     1.34225    
C8       C      0.289933333333     0.072633333333     0.229600000000     0.396986   
H8       H      0.263718666667     0.071053666667     0.223973000000    -0.112605   
C2       C      0.152766666667     0.075100000000     0.271266666667    -0.381906   
C9       C      0.312600000000     0.090533333333     0.216200000000    -0.429993   
C7       C      0.314566666667     0.057066666667     0.253733333333    -0.415602   
C4       C      0.136466666667     0.113733333333     0.239633333333    -0.397044   
Al2      Al     0.166666666667     0.166666666667     0.500000000000     7.12322    
Al1      Al     0.245060000000     0.144516666667     0.478336666667     7.33899    
Al3      Al     0.000000000000     0.166666666667     0.500000000000     7.85365    
O4       O      0.207776666667     0.116296666667     0.460486666667    -1.7484     
O2       O      0.216686666667     0.156506666667     0.507853333333    -3.2024     
H2       H      0.229463000000     0.157477333333     0.529330000000     0.8216     
O7       O      0.270813333333     0.129643333333     0.447070000000    -1.78282    
O1       O      0.282370000000     0.171726666667     0.493753333333    -3.39326    
H1       H      0.274220666667     0.190387333333     0.499014333333     0.877101   
O5       O      0.110493333333     0.007536666667     0.385183333333    -1.77263    
O9       O      0.269620000000     0.051303333333     0.342426666667    -1.65817    
O3       O      0.153183333333     0.133740000000     0.470700000000    -1.69567    
O6       O      0.160703333333     0.025593333333     0.368300000000    -1.65044    
O10      O      0.330363333333     0.036990000000     0.353990000000    -1.81989    
O8       O      0.330263333333     0.146240000000     0.460143333333    -1.87226    
N4       N      0.015300000000     0.080933333333     0.398200000000    -0.0823668  
H4       H      0.034561000000     0.071771666667     0.393842000000     0.091553   
N1       N      0.115200000000     0.087066666667     0.433333333333    -0.0767488  
H1A      H      0.099957666667     0.097941666667     0.441532666667     0.0704467  
N2       N      0.104700000000     0.063400000000     0.414366666667    -0.0326948  
N3       N      0.017166666667     0.101600000000     0.420866666667    -0.036724   
C1       C      0.172700000000     0.115700000000     0.458100000000     1.29146    
C6       C      0.304600000000     0.130466666667     0.444200000000     1.38183    
C5       C      0.135733333333     0.026700000000     0.385066666667     1.26062    
C3       C      0.167133333333     0.070433333333     0.420200000000     0.369742   
H3       H      0.192073666667     0.068331333333     0.417993000000    -0.105482   
C10      C      0.303466666667     0.053033333333     0.357833333333     1.29487    
C8       C      0.289933333333     0.094033333333     0.396266666667     0.39529    
H8       H      0.263718666667     0.095613000000     0.390639666667    -0.108216   
C2       C      0.152766666667     0.091566666667     0.437933333333    -0.393078   
C9       C      0.312600000000     0.076133333333     0.382866666667    -0.416699   
C7       C      0.314566666667     0.109600000000     0.420400000000    -0.422669   
C4       C      0.136466666667     0.052933333333     0.406300000000    -0.400031   
Al2      Al     0.166666666667     0.000000000000     0.333333333333     6.78239    
Al1      Al     0.088273333333     0.311183333333     0.354996666667     7.33325    
Al3      Al     0.000000000000     0.000000000000     0.333333333333     7.47751    
O4       O      0.125556666667     0.282963333333     0.372846666667    -1.74618    
O2       O      0.116646666667     0.323173333333     0.658813333333    -3.20127    
H2       H      0.103870333333     0.324144000000     0.637336666667     0.820858   
O7       O      0.062520000000     0.296310000000     0.386263333333    -1.78107    
O1       O      0.050963333333     0.005060000000     0.339580000000    -3.36141    
H1       H      0.059112666667     0.023720666667     0.334319000000     0.863168   
O5       O      0.222840000000     0.174203333333     0.448150000000    -1.72901    
O9       O      0.063713333333     0.217970000000     0.490906666667    -1.71459    
O3       O      0.180150000000     0.300406666667     0.362633333333    -1.69488    
O6       O      0.172630000000     0.192260000000     0.465033333333    -1.69541    
O10      O      0.002970000000     0.203656666667     0.479343333333    -1.88074    
O8       O      0.003070000000     0.312906666667     0.373190000000    -1.86519    
N4       N      0.318033333333     0.247600000000     0.435133333333    -0.072234   
H4       H      0.298772333333     0.238438333333     0.439491333333     0.0932477  
N1       N      0.218133333333     0.253733333333     0.400000000000    -0.0763082  
H1A      H      0.233375666667     0.264608333333     0.391800666667     0.0724216  
N2       N      0.228633333333     0.230066666667     0.418966666667    -0.0299773  
N3       N      0.316166666667     0.268266666667     0.412466666667    -0.0285732  
C1       C      0.160633333333     0.282366666667     0.375233333333     1.29162    
C6       C      0.028733333333     0.297133333333     0.389133333333     1.38168    
C5       C      0.197600000000     0.193366666667     0.448266666667     1.2719     
C3       C      0.166200000000     0.237100000000     0.413133333333     0.372454   
H3       H      0.141259666667     0.234998000000     0.415340333333    -0.104052   
C10      C      0.029866666667     0.219700000000     0.475500000000     1.34131    
C8       C      0.043400000000     0.260700000000     0.437066666667     0.411971   
H8       H      0.069614666667     0.262279666667     0.442693666667    -0.114467   
C2       C      0.180566666667     0.258233333333     0.395400000000    -0.391554   
C9       C      0.020733333333     0.242800000000     0.450466666667    -0.439468   
C7       C      0.018766666667     0.276266666667     0.412933333333    -0.434266   
C4       C      0.196866666667     0.219600000000     0.427033333333    -0.398768   
Al1      Al     0.088273333333     0.188816666667     0.521663333333     7.33276    
O4       O      0.125556666667     0.217036666667     0.539513333333    -1.74606    
O2       O      0.116646666667     0.176826666667     0.492146666667    -3.20118    
H2       H      0.103870333333     0.175856000000     0.470670000000     0.820891   
O7       O      0.062520000000     0.203690000000     0.552930000000    -1.78089    
O1       O      0.050963333333     0.161606666667     0.506246666667    -3.37893    
H1       H      0.059112666667     0.142946000000     0.500985666667     0.871024   
O5       O      0.222840000000     0.325796666667     0.614816666667    -1.72947    
O9       O      0.063713333333     0.282030000000     0.657573333333    -1.71466    
O3       O      0.180150000000     0.199593333333     0.529300000000    -1.69469    
O6       O      0.172630000000     0.307740000000     0.631700000000    -1.69561    
O10      O      0.002970000000     0.296343333333     0.646010000000    -1.88095    
O8       O      0.003070000000     0.187093333333     0.539856666667    -1.86484    
N4       N      0.318033333333     0.252400000000     0.601800000000    -0.0722238  
H4       H      0.298772333333     0.261561666667     0.606158000000     0.0932343  
N1       N      0.218133333333     0.246266666667     0.566666666667    -0.0763214  
H1A      H      0.233375666667     0.235391666667     0.558467333333     0.0724549  
N2       N      0.228633333333     0.269933333333     0.585633333333    -0.030026   
N3       N      0.316166666667     0.231733333333     0.579133333333    -0.0285377  
C1       C      0.160633333333     0.217633333333     0.541900000000     1.29159    
C6       C      0.028733333333     0.202866666667     0.555800000000     1.38161    
C5       C      0.197600000000     0.306633333333     0.614933333333     1.27193    
C3       C      0.166200000000     0.262900000000     0.579800000000     0.372457   
H3       H      0.141259666667     0.265002000000     0.582007000000    -0.104128   
C10      C      0.029866666667     0.280300000000     0.642166666667     1.34138    
C8       C      0.043400000000     0.239300000000     0.603733333333     0.411957   
H8       H      0.069614666667     0.237720333333     0.609360333333    -0.114368   
C2       C      0.180566666667     0.241766666667     0.562066666667    -0.391533   
C9       C      0.020733333333     0.257200000000     0.617133333333    -0.439458   
C7       C      0.018766666667     0.223733333333     0.579600000000    -0.434105   
C4       C      0.196866666667     0.280400000000     0.593700000000    -0.398918   
Al1      Al     0.245060000000     0.022150000000     0.645003333333     7.03812    
O4       O      0.207776666667     0.050370000000     0.627153333333    -1.68986    
O2       O      0.216686666667     0.010160000000     0.341186666667    -3.089      
H2       H      0.229463000000     0.009189333333     0.362663333333     0.783504   
O7       O      0.270813333333     0.037023333333     0.613736666667    -1.73021    
O1       O      0.282370000000     0.328273333333     0.660420000000    -3.3938     
H1       H      0.274220666667     0.309612666667     0.665681000000     0.877174   
O5       O      0.110493333333     0.159130000000     0.551850000000    -1.72823    
O9       O      0.269620000000     0.115363333333     0.509093333333    -1.71758    
O3       O      0.153183333333     0.032926666667     0.637366666667    -1.64096    
O6       O      0.160703333333     0.141073333333     0.534966666667    -1.6957     
O10      O      0.330363333333     0.129676666667     0.520656666667    -1.88883    
O8       O      0.330263333333     0.020426666667     0.626810000000    -1.81166    
N4       N      0.015300000000     0.085733333333     0.564866666667    -0.0795831  
H4       H      0.034561000000     0.094895000000     0.560508666667     0.0913054  
N1       N      0.115200000000     0.079600000000     0.600000000000    -0.0787944  
H1A      H      0.099957666667     0.068725000000     0.608199333333     0.0692767  
N2       N      0.104700000000     0.103266666667     0.581033333333    -0.0316824  
N3       N      0.017166666667     0.065066666667     0.587533333333    -0.0397356  
C1       C      0.172700000000     0.050966666667     0.624766666667     1.24833    
C6       C      0.304600000000     0.036200000000     0.610866666667     1.33585    
C5       C      0.135733333333     0.139966666667     0.551733333333     1.27022    
C3       C      0.167133333333     0.096233333333     0.586866666667     0.363676   
H3       H      0.192073666667     0.098335333333     0.584659666667    -0.101809   
C10      C      0.303466666667     0.113633333333     0.524500000000     1.34225    
C8       C      0.289933333333     0.072633333333     0.562933333333     0.396983   
H8       H      0.263718666667     0.071053666667     0.557306333333    -0.112619   
C2       C      0.152766666667     0.075100000000     0.604600000000    -0.38192    
C9       C      0.312600000000     0.090533333333     0.549533333333    -0.430012   
C7       C      0.314566666667     0.057066666667     0.587066666667    -0.415616   
C4       C      0.136466666667     0.113733333333     0.572966666667    -0.397059   
Al2      Al     0.166666666667     0.166666666667     0.833333333333     7.12321    
Al1      Al     0.245060000000     0.144516666667     0.811670000000     7.33898    
Al3      Al     0.000000000000     0.166666666667     0.833333333333     7.85364    
O4       O      0.207776666667     0.116296666667     0.793820000000    -1.74841    
O2       O      0.216686666667     0.156506666667     0.841186666667    -3.20241    
H2       H      0.229463000000     0.157477333333     0.862663333333     0.821651   
O7       O      0.270813333333     0.129643333333     0.780403333333    -1.78283    
O1       O      0.282370000000     0.171726666667     0.827086666667    -3.39325    
H1       H      0.274220666667     0.190387333333     0.832347666667     0.877099   
O5       O      0.110493333333     0.007536666667     0.718516666667    -1.77262    
O9       O      0.269620000000     0.051303333333     0.675760000000    -1.65816    
O3       O      0.153183333333     0.133740000000     0.804033333333    -1.69568    
O6       O      0.160703333333     0.025593333333     0.701633333333    -1.65044    
O10      O      0.330363333333     0.036990000000     0.687323333333    -1.81988    
O8       O      0.330263333333     0.146240000000     0.793476666667    -1.87226    
N4       N      0.015300000000     0.080933333333     0.731533333333    -0.0823675  
H4       H      0.034561000000     0.071771666667     0.727175333333     0.0915444  
N1       N      0.115200000000     0.087066666667     0.766666666667    -0.07675    
H1A      H      0.099957666667     0.097941666667     0.774866000000     0.0704365  
N2       N      0.104700000000     0.063400000000     0.747700000000    -0.0327024  
N3       N      0.017166666667     0.101600000000     0.754200000000    -0.0367306  
C1       C      0.172700000000     0.115700000000     0.791433333333     1.29146    
C6       C      0.304600000000     0.130466666667     0.777533333333     1.38183    
C5       C      0.135733333333     0.026700000000     0.718400000000     1.26061    
C3       C      0.167133333333     0.070433333333     0.753533333333     0.369738   
H3       H      0.192073666667     0.068331333333     0.751326333333    -0.105492   
C10      C      0.303466666667     0.053033333333     0.691166666667     1.29486    
C8       C      0.289933333333     0.094033333333     0.729600000000     0.395286   
H8       H      0.263718666667     0.095613000000     0.723973000000    -0.108226   
C2       C      0.152766666667     0.091566666667     0.771266666667    -0.393093   
C9       C      0.312600000000     0.076133333333     0.716200000000    -0.41671    
C7       C      0.314566666667     0.109600000000     0.753733333333    -0.422682   
C4       C      0.136466666667     0.052933333333     0.739633333333    -0.400041   
Al2      Al     0.166666666667     0.000000000000     0.666666666667     6.78233    
Al1      Al     0.088273333333     0.311183333333     0.688330000000     7.3332     
Al3      Al     0.000000000000     0.000000000000     0.666666666667     7.47745    
O4       O      0.125556666667     0.282963333333     0.706180000000    -1.74618    
O2       O      0.116646666667     0.323173333333     0.992146666667    -3.1959     
H2       H      0.103870333333     0.324144000000     0.970670000000     0.819843   
O7       O      0.062520000000     0.296310000000     0.719596666667    -1.78106    
O1       O      0.050963333333     0.005060000000     0.672913333333    -3.36139    
H1       H      0.059112666667     0.023720666667     0.667652333333     0.863157   
O5       O      0.222840000000     0.174203333333     0.781483333333    -1.72902    
O9       O      0.063713333333     0.217970000000     0.824240000000    -1.7146     
O3       O      0.180150000000     0.300406666667     0.695966666667    -1.69487    
O6       O      0.172630000000     0.192260000000     0.798366666667    -1.69542    
O10      O      0.002970000000     0.203656666667     0.812676666667    -1.88074    
O8       O      0.003070000000     0.312906666667     0.706523333333    -1.86519    
N4       N      0.318033333333     0.247600000000     0.768466666667    -0.0722357  
H4       H      0.298772333333     0.238438333333     0.772824666667     0.0932388  
N1       N      0.218133333333     0.253733333333     0.733333333333    -0.0763101  
H1A      H      0.233375666667     0.264608333333     0.725134000000     0.0724122  
N2       N      0.228633333333     0.230066666667     0.752300000000    -0.0299851  
N3       N      0.316166666667     0.268266666667     0.745800000000    -0.0285813  
C1       C      0.160633333333     0.282366666667     0.708566666667     1.2916     
C6       C      0.028733333333     0.297133333333     0.722466666667     1.38167    
C5       C      0.197600000000     0.193366666667     0.781600000000     1.2719     
C3       C      0.166200000000     0.237100000000     0.746466666667     0.37245    
H3       H      0.141259666667     0.234998000000     0.748673666667    -0.104062   
C10      C      0.029866666667     0.219700000000     0.808833333333     1.3413     
C8       C      0.043400000000     0.260700000000     0.770400000000     0.411966   
H8       H      0.069614666667     0.262279666667     0.776027000000    -0.114475   
C2       C      0.180566666667     0.258233333333     0.728733333333    -0.391566   
C9       C      0.020733333333     0.242800000000     0.783800000000    -0.439477   
C7       C      0.018766666667     0.276266666667     0.746266666667    -0.434273   
C4       C      0.196866666667     0.219600000000     0.760366666667    -0.398781   
Al1      Al     0.088273333333     0.188816666667     0.854996666667     7.33272    
O4       O      0.125556666667     0.217036666667     0.872846666667    -1.74602    
O2       O      0.116646666667     0.176826666667     0.825480000000    -3.20118    
H2       H      0.103870333333     0.175856000000     0.804003333333     0.820882   
O7       O      0.062520000000     0.203690000000     0.886263333333    -1.7808     
O1       O      0.050963333333     0.161606666667     0.839580000000    -3.37892    
H1       H      0.059112666667     0.142946000000     0.834319000000     0.871015   
O5       O      0.222840000000     0.325796666667     0.948150000000    -1.72988    
O9       O      0.063713333333     0.282030000000     0.990906666667    -1.71181    
O3       O      0.180150000000     0.199593333333     0.862633333333    -1.69465    
O6       O      0.172630000000     0.307740000000     0.965033333333    -1.69323    
O10      O      0.002970000000     0.296343333333     0.979343333333    -1.87781    
O8       O      0.003070000000     0.187093333333     0.873190000000    -1.86477    
N4       N      0.318033333333     0.252400000000     0.935133333333    -0.0723543  
H4       H      0.298772333333     0.261561666667     0.939491333333     0.093382   
N1       N      0.218133333333     0.246266666667     0.900000000000    -0.07632    
H1A      H      0.233375666667     0.235391666667     0.891800666667     0.0724994  
N2       N      0.228633333333     0.269933333333     0.918966666667    -0.0299882  
N3       N      0.316166666667     0.231733333333     0.912466666667    -0.0285015  
C1       C      0.160633333333     0.217633333333     0.875233333333     1.29159    
C6       C      0.028733333333     0.202866666667     0.889133333333     1.38157    
C5       C      0.197600000000     0.306633333333     0.948266666667     1.27152    
C3       C      0.166200000000     0.262900000000     0.913133333333     0.372338   
H3       H      0.141259666667     0.265002000000     0.915340333333    -0.104      
C10      C      0.029866666667     0.280300000000     0.975500000000     1.33979    
C8       C      0.043400000000     0.239300000000     0.937066666667     0.41155    
H8       H      0.069614666667     0.237720333333     0.942693666667    -0.11402    
C2       C      0.180566666667     0.241766666667     0.895400000000    -0.391407   
C9       C      0.020733333333     0.257200000000     0.950466666667    -0.43864    
C7       C      0.018766666667     0.223733333333     0.912933333333    -0.433851   
C4       C      0.196866666667     0.280400000000     0.927033333333    -0.398628   
Al1      Al     0.245060000000     0.022150000000     0.978336666667     7.04278    
O4       O      0.207776666667     0.050370000000     0.960486666667    -1.68996    
O2       O      0.216686666667     0.010160000000     0.674520000000    -3.08898    
H2       H      0.229463000000     0.009189333333     0.695996666667     0.783492   
O7       O      0.270813333333     0.037023333333     0.947070000000    -1.73048    
O1       O      0.282370000000     0.328273333333     0.993753333333    -3.3915     
H1       H      0.274220666667     0.309612666667     0.999014333333     0.877198   
O5       O      0.110493333333     0.159130000000     0.885183333333    -1.72814    
O9       O      0.269620000000     0.115363333333     0.842426666667    -1.71757    
O3       O      0.153183333333     0.032926666667     0.970700000000    -1.63853    
O6       O      0.160703333333     0.141073333333     0.868300000000    -1.69567    
O10      O      0.330363333333     0.129676666667     0.853990000000    -1.8888     
O8       O      0.330263333333     0.020426666667     0.960143333333    -1.809      
N4       N      0.015300000000     0.085733333333     0.898200000000    -0.0795702  
H4       H      0.034561000000     0.094895000000     0.893842000000     0.0913609  
N1       N      0.115200000000     0.079600000000     0.933333333333    -0.0788625  
H1A      H      0.099957666667     0.068725000000     0.941532666667     0.0695367  
N2       N      0.104700000000     0.103266666667     0.914366666667    -0.031599   
N3       N      0.017166666667     0.065066666667     0.920866666667    -0.0396282  
C1       C      0.172700000000     0.050966666667     0.958100000000     1.24789    
C6       C      0.304600000000     0.036200000000     0.944200000000     1.33534    
C5       C      0.135733333333     0.139966666667     0.885066666667     1.27022    
C3       C      0.167133333333     0.096233333333     0.920200000000     0.363576   
H3       H      0.192073666667     0.098335333333     0.917993000000    -0.101653   
C10      C      0.303466666667     0.113633333333     0.857833333333     1.34224    
C8       C      0.289933333333     0.072633333333     0.896266666667     0.396892   
H8       H      0.263718666667     0.071053666667     0.890639666667    -0.112552   
C2       C      0.152766666667     0.075100000000     0.937933333333    -0.381514   
C9       C      0.312600000000     0.090533333333     0.882866666667    -0.429924   
C7       C      0.314566666667     0.057066666667     0.920400000000    -0.415283   
C4       C      0.136466666667     0.113733333333     0.906300000000    -0.396923   
Al2      Al     0.166666666667     0.500000000000     0.166666666667     7.12298    
Al1      Al     0.245060000000     0.477850000000     0.145003333333     7.33945    
Al3      Al     0.000000000000     0.500000000000     0.166666666667     7.85387    
O4       O      0.207776666667     0.449630000000     0.127153333333    -1.74744    
O2       O      0.216686666667     0.489840000000     0.174520000000    -3.20232    
H2       H      0.229463000000     0.490810666667     0.195996666667     0.821412   
O7       O      0.270813333333     0.462976666667     0.113736666667    -1.78295    
O1       O      0.282370000000     0.505060000000     0.160420000000    -3.39362    
H1       H      0.274220666667     0.523720666667     0.165681000000     0.87699    
O5       O      0.110493333333     0.340870000000     0.051850000000    -1.72678    
O9       O      0.269620000000     0.384636666667     0.009093333333    -1.7179     
O3       O      0.153183333333     0.467073333333     0.137366666667    -1.69529    
O6       O      0.160703333333     0.358926666667     0.034966666667    -1.69363    
O10      O      0.330363333333     0.370323333333     0.020656666667    -1.88704    
O8       O      0.330263333333     0.479573333333     0.126810000000    -1.87257    
N4       N      0.015300000000     0.414266666667     0.064866666667    -0.0788935  
H4       H      0.034561000000     0.405105000000     0.060508666667     0.0925188  
N1       N      0.115200000000     0.420400000000     0.100000000000    -0.0763331  
H1A      H      0.099957666667     0.431275000000     0.108199333333     0.071639   
N2       N      0.104700000000     0.396733333333     0.081033333333    -0.0307387  
N3       N      0.017166666667     0.434933333333     0.087533333333    -0.0354623  
C1       C      0.172700000000     0.449033333333     0.124766666667     1.29192    
C6       C      0.304600000000     0.463800000000     0.110866666667     1.38346    
C5       C      0.135733333333     0.360033333333     0.051733333333     1.27003    
C3       C      0.167133333333     0.403766666667     0.086866666667     0.372218   
H3       H      0.192073666667     0.401664666667     0.084659666667    -0.104063   
C10      C      0.303466666667     0.386366666667     0.024500000000     1.34318    
C8       C      0.289933333333     0.427366666667     0.062933333333     0.40599    
H8       H      0.263718666667     0.428946333333     0.057306333333    -0.112445   
C2       C      0.152766666667     0.424900000000     0.104600000000    -0.39207    
C9       C      0.312600000000     0.409466666667     0.049533333333    -0.430818   
C7       C      0.314566666667     0.442933333333     0.087066666667    -0.425387   
C4       C      0.136466666667     0.386266666667     0.072966666667    -0.398742   
Al2      Al     0.166666666667     0.333333333333     0.000000000000     7.11268    
Al1      Al     0.088273333333     0.644516666667     0.021663333333     7.32237    
Al3      Al     0.000000000000     0.333333333333     0.000000000000     7.8425     
O4       O      0.125556666667     0.616296666667     0.039513333333    -1.74456    
O2       O      0.116646666667     0.656506666667     0.325480000000    -3.20089    
H2       H      0.103870333333     0.657477333333     0.304003333333     0.82061    
O7       O      0.062520000000     0.629643333333     0.052930000000    -1.77916    
O1       O      0.050963333333     0.338393333333     0.006246666667    -3.37546    
H1       H      0.059112666667     0.357054000000     0.000985666667     0.870529   
O5       O      0.222840000000     0.507536666667     0.114816666667    -1.72954    
O9       O      0.063713333333     0.551303333333     0.157573333333    -1.71477    
O3       O      0.180150000000     0.633740000000     0.029300000000    -1.69306    
O6       O      0.172630000000     0.525593333333     0.131700000000    -1.69567    
O10      O      0.002970000000     0.536990000000     0.146010000000    -1.881      
O8       O      0.003070000000     0.646240000000     0.039856666667    -1.86309    
N4       N      0.318033333333     0.580933333333     0.101800000000    -0.0722979  
H4       H      0.298772333333     0.571771666667     0.106158000000     0.0929677  
N1       N      0.218133333333     0.587066666667     0.066666666667    -0.076435   
H1A      H      0.233375666667     0.597941666667     0.058467333333     0.0720275  
N2       N      0.228633333333     0.563400000000     0.085633333333    -0.0302764  
N3       N      0.316166666667     0.601600000000     0.079133333333    -0.0289617  
C1       C      0.160633333333     0.615700000000     0.041900000000     1.28993    
C6       C      0.028733333333     0.630466666667     0.055800000000     1.37986    
C5       C      0.197600000000     0.526700000000     0.114933333333     1.27174    
C3       C      0.166200000000     0.570433333333     0.079800000000     0.372092   
H3       H      0.141259666667     0.568331333333     0.082007000000    -0.104314   
C10      C      0.029866666667     0.553033333333     0.142166666667     1.34118    
C8       C      0.043400000000     0.594033333333     0.103733333333     0.41159    
H8       H      0.069614666667     0.595613000000     0.109360333333    -0.114603   
C2       C      0.180566666667     0.591566666667     0.062066666667    -0.391618   
C9       C      0.020733333333     0.576133333333     0.117133333333    -0.439754   
C7       C      0.018766666667     0.609600000000     0.079600000000    -0.434175   
C4       C      0.196866666667     0.552933333333     0.093700000000    -0.399139   
Al1      Al     0.088273333333     0.522150000000     0.188330000000     7.33249    
O4       O      0.125556666667     0.550370000000     0.206180000000    -1.74626    
O2       O      0.116646666667     0.510160000000     0.158813333333    -3.20106    
H2       H      0.103870333333     0.509189333333     0.137336666667     0.82068    
O7       O      0.062520000000     0.537023333333     0.219596666667    -1.78108    
O1       O      0.050963333333     0.494940000000     0.172913333333    -3.37913    
H1       H      0.059112666667     0.476279333333     0.167652333333     0.87181    
O5       O      0.222840000000     0.659130000000     0.281483333333    -1.72943    
O9       O      0.063713333333     0.615363333333     0.324240000000    -1.71468    
O3       O      0.180150000000     0.532926666667     0.195966666667    -1.6949     
O6       O      0.172630000000     0.641073333333     0.298366666667    -1.69558    
O10      O      0.002970000000     0.629676666667     0.312676666667    -1.8809     
O8       O      0.003070000000     0.520426666667     0.206523333333    -1.86519    
N4       N      0.318033333333     0.585733333333     0.268466666667    -0.0722735  
H4       H      0.298772333333     0.594895000000     0.272824666667     0.0930017  
N1       N      0.218133333333     0.579600000000     0.233333333333    -0.0763564  
H1A      H      0.233375666667     0.568725000000     0.225134000000     0.0721902  
N2       N      0.228633333333     0.603266666667     0.252300000000    -0.0302202  
N3       N      0.316166666667     0.565066666667     0.245800000000    -0.028765   
C1       C      0.160633333333     0.550966666667     0.208566666667     1.29144    
C6       C      0.028733333333     0.536200000000     0.222466666667     1.3815     
C5       C      0.197600000000     0.639966666667     0.281600000000     1.27168    
C3       C      0.166200000000     0.596233333333     0.246466666667     0.372364   
H3       H      0.141259666667     0.598335333333     0.248673666667    -0.104343   
C10      C      0.029866666667     0.613633333333     0.308833333333     1.34114    
C8       C      0.043400000000     0.572633333333     0.270400000000     0.411891   
H8       H      0.069614666667     0.571053666667     0.276027000000    -0.114656   
C2       C      0.180566666667     0.575100000000     0.228733333333    -0.391882   
C9       C      0.020733333333     0.590533333333     0.283800000000    -0.43979    
C7       C      0.018766666667     0.557066666667     0.246266666667    -0.434497   
C4       C      0.196866666667     0.613733333333     0.260366666667    -0.399169   
Al1      Al     0.245060000000     0.355483333333     0.311670000000     7.34001    
O4       O      0.207776666667     0.383703333333     0.293820000000    -1.74753    
O2       O      0.216686666667     0.343493333333     0.007853333333    -3.20219    
H2       H      0.229463000000     0.342522666667     0.029330000000     0.821331   
O7       O      0.270813333333     0.370356666667     0.280403333333    -1.78297    
O1       O      0.282370000000     0.661606666667     0.327086666667    -3.39339    
H1       H      0.274220666667     0.642946000000     0.332347666667     0.876918   
O5       O      0.110493333333     0.492463333333     0.218516666667    -1.72863    
O9       O      0.269620000000     0.448696666667     0.175760000000    -1.71648    
O3       O      0.153183333333     0.366260000000     0.304033333333    -1.69536    
O6       O      0.160703333333     0.474406666667     0.201633333333    -1.69539    
O10      O      0.330363333333     0.463010000000     0.187323333333    -1.88861    
O8       O      0.330263333333     0.353760000000     0.293476666667    -1.87259    
N4       N      0.015300000000     0.419066666667     0.231533333333    -0.0788644  
H4       H      0.034561000000     0.428228333333     0.227175333333     0.0925817  
N1       N      0.115200000000     0.412933333333     0.266666666667    -0.0763047  
H1A      H      0.099957666667     0.402058333333     0.274866000000     0.0716781  
N2       N      0.104700000000     0.436600000000     0.247700000000    -0.0306772  
N3       N      0.017166666667     0.398400000000     0.254200000000    -0.0354082  
C1       C      0.172700000000     0.384300000000     0.291433333333     1.29207    
C6       C      0.304600000000     0.369533333333     0.277533333333     1.38359    
C5       C      0.135733333333     0.473300000000     0.218400000000     1.27134    
C3       C      0.167133333333     0.429566666667     0.253533333333     0.372528   
H3       H      0.192073666667     0.431668666667     0.251326333333    -0.104158   
C10      C      0.303466666667     0.446966666667     0.191166666667     1.34361    
C8       C      0.289933333333     0.405966666667     0.229600000000     0.406024   
H8       H      0.263718666667     0.404387000000     0.223973000000    -0.11227    
C2       C      0.152766666667     0.408433333333     0.271266666667    -0.392129   
C9       C      0.312600000000     0.423866666667     0.216200000000    -0.430739   
C7       C      0.314566666667     0.390400000000     0.253733333333    -0.425271   
C4       C      0.136466666667     0.447066666667     0.239633333333    -0.399134   
Al2      Al     0.166666666667     0.500000000000     0.500000000000     7.12299    
Al1      Al     0.245060000000     0.477850000000     0.478336666667     7.33945    
Al3      Al     0.000000000000     0.500000000000     0.500000000000     7.85384    
O4       O      0.207776666667     0.449630000000     0.460486666667    -1.74743    
O2       O      0.216686666667     0.489840000000     0.507853333333    -3.20234    
H2       H      0.229463000000     0.490810666667     0.529330000000     0.821405   
O7       O      0.270813333333     0.462976666667     0.447070000000    -1.78291    
O1       O      0.282370000000     0.505060000000     0.493753333333    -3.39361    
H1       H      0.274220666667     0.523720666667     0.499014333333     0.876981   
O5       O      0.110493333333     0.340870000000     0.385183333333    -1.7287     
O9       O      0.269620000000     0.384636666667     0.342426666667    -1.7166     
O3       O      0.153183333333     0.467073333333     0.470700000000    -1.69528    
O6       O      0.160703333333     0.358926666667     0.368300000000    -1.69549    
O10      O      0.330363333333     0.370323333333     0.353990000000    -1.88872    
O8       O      0.330263333333     0.479573333333     0.460143333333    -1.87253    
N4       N      0.015300000000     0.414266666667     0.398200000000    -0.0788623  
H4       H      0.034561000000     0.405105000000     0.393842000000     0.0925766  
N1       N      0.115200000000     0.420400000000     0.433333333333    -0.0763067  
H1A      H      0.099957666667     0.431275000000     0.441532666667     0.0716603  
N2       N      0.104700000000     0.396733333333     0.414366666667    -0.0306594  
N3       N      0.017166666667     0.434933333333     0.420866666667    -0.0354332  
C1       C      0.172700000000     0.449033333333     0.458100000000     1.29197    
C6       C      0.304600000000     0.463800000000     0.444200000000     1.38348    
C5       C      0.135733333333     0.360033333333     0.385066666667     1.27146    
C3       C      0.167133333333     0.403766666667     0.420200000000     0.37253    
H3       H      0.192073666667     0.401664666667     0.417993000000    -0.104135   
C10      C      0.303466666667     0.386366666667     0.357833333333     1.3437     
C8       C      0.289933333333     0.427366666667     0.396266666667     0.406028   
H8       H      0.263718666667     0.428946333333     0.390639666667    -0.11232    
C2       C      0.152766666667     0.424900000000     0.437933333333    -0.392124   
C9       C      0.312600000000     0.409466666667     0.382866666667    -0.430783   
C7       C      0.314566666667     0.442933333333     0.420400000000    -0.42531    
C4       C      0.136466666667     0.386266666667     0.406300000000    -0.399118   
Al2      Al     0.166666666667     0.333333333333     0.333333333333     7.12365    
Al1      Al     0.088273333333     0.644516666667     0.354996666667     7.332      
Al3      Al     0.000000000000     0.333333333333     0.333333333333     7.85454    
O4       O      0.125556666667     0.616296666667     0.372846666667    -1.74617    
O2       O      0.116646666667     0.656506666667     0.658813333333    -3.20087    
H2       H      0.103870333333     0.657477333333     0.637336666667     0.820597   
O7       O      0.062520000000     0.629643333333     0.386263333333    -1.78103    
O1       O      0.050963333333     0.338393333333     0.339580000000    -3.37936    
H1       H      0.059112666667     0.357054000000     0.334319000000     0.871881   
O5       O      0.222840000000     0.507536666667     0.448150000000    -1.72948    
O9       O      0.063713333333     0.551303333333     0.490906666667    -1.71478    
O3       O      0.180150000000     0.633740000000     0.362633333333    -1.69484    
O6       O      0.172630000000     0.525593333333     0.465033333333    -1.69566    
O10      O      0.002970000000     0.536990000000     0.479343333333    -1.88099    
O8       O      0.003070000000     0.646240000000     0.373190000000    -1.86514    
N4       N      0.318033333333     0.580933333333     0.435133333333    -0.0722716  
H4       H      0.298772333333     0.571771666667     0.439491333333     0.0929986  
N1       N      0.218133333333     0.587066666667     0.400000000000    -0.0763576  
H1A      H      0.233375666667     0.597941666667     0.391800666667     0.0721694  
N2       N      0.228633333333     0.563400000000     0.418966666667    -0.030203   
N3       N      0.316166666667     0.601600000000     0.412466666667    -0.0287899  
C1       C      0.160633333333     0.615700000000     0.375233333333     1.29136    
C6       C      0.028733333333     0.630466666667     0.389133333333     1.3814     
C5       C      0.197600000000     0.526700000000     0.448266666667     1.27179    
C3       C      0.166200000000     0.570433333333     0.413133333333     0.372367   
H3       H      0.141259666667     0.568331333333     0.415340333333    -0.104321   
C10      C      0.029866666667     0.553033333333     0.475500000000     1.34123    
C8       C      0.043400000000     0.594033333333     0.437066666667     0.411894   
H8       H      0.069614666667     0.595613000000     0.442693666667    -0.114703   
C2       C      0.180566666667     0.591566666667     0.395400000000    -0.391882   
C9       C      0.020733333333     0.576133333333     0.450466666667    -0.439829   
C7       C      0.018766666667     0.609600000000     0.412933333333    -0.434539   
C4       C      0.196866666667     0.552933333333     0.427033333333    -0.399149   
Al1      Al     0.088273333333     0.522150000000     0.521663333333     7.33249    
O4       O      0.125556666667     0.550370000000     0.539513333333    -1.74627    
O2       O      0.116646666667     0.510160000000     0.492146666667    -3.20107    
H2       H      0.103870333333     0.509189333333     0.470670000000     0.820725   
O7       O      0.062520000000     0.537023333333     0.552930000000    -1.78109    
O1       O      0.050963333333     0.494940000000     0.506246666667    -3.37912    
H1       H      0.059112666667     0.476279333333     0.500985666667     0.871807   
O5       O      0.222840000000     0.659130000000     0.614816666667    -1.72943    
O9       O      0.063713333333     0.615363333333     0.657573333333    -1.71467    
O3       O      0.180150000000     0.532926666667     0.529300000000    -1.69492    
O6       O      0.172630000000     0.641073333333     0.631700000000    -1.69558    
O10      O      0.002970000000     0.629676666667     0.646010000000    -1.8809     
O8       O      0.003070000000     0.520426666667     0.539856666667    -1.86519    
N4       N      0.318033333333     0.585733333333     0.601800000000    -0.0722758  
H4       H      0.298772333333     0.594895000000     0.606158000000     0.0929917  
N1       N      0.218133333333     0.579600000000     0.566666666667    -0.076358   
H1A      H      0.233375666667     0.568725000000     0.558467333333     0.0721772  
N2       N      0.228633333333     0.603266666667     0.585633333333    -0.0302302  
N3       N      0.316166666667     0.565066666667     0.579133333333    -0.0287748  
C1       C      0.160633333333     0.550966666667     0.541900000000     1.29144    
C6       C      0.028733333333     0.536200000000     0.555800000000     1.38149    
C5       C      0.197600000000     0.639966666667     0.614933333333     1.27167    
C3       C      0.166200000000     0.596233333333     0.579800000000     0.372361   
H3       H      0.141259666667     0.598335333333     0.582007000000    -0.104355   
C10      C      0.029866666667     0.613633333333     0.642166666667     1.34113    
C8       C      0.043400000000     0.572633333333     0.603733333333     0.411888   
H8       H      0.069614666667     0.571053666667     0.609360333333    -0.114666   
C2       C      0.180566666667     0.575100000000     0.562066666667    -0.391901   
C9       C      0.020733333333     0.590533333333     0.617133333333    -0.439804   
C7       C      0.018766666667     0.557066666667     0.579600000000    -0.434511   
C4       C      0.196866666667     0.613733333333     0.593700000000    -0.399182   
Al1      Al     0.245060000000     0.355483333333     0.645003333333     7.33995    
O4       O      0.207776666667     0.383703333333     0.627153333333    -1.74753    
O2       O      0.216686666667     0.343493333333     0.341186666667    -3.20253    
H2       H      0.229463000000     0.342522666667     0.362663333333     0.821533   
O7       O      0.270813333333     0.370356666667     0.613736666667    -1.78297    
O1       O      0.282370000000     0.661606666667     0.660420000000    -3.39338    
H1       H      0.274220666667     0.642946000000     0.665681000000     0.876908   
O5       O      0.110493333333     0.492463333333     0.551850000000    -1.72864    
O9       O      0.269620000000     0.448696666667     0.509093333333    -1.71649    
O3       O      0.153183333333     0.366260000000     0.637366666667    -1.69536    
O6       O      0.160703333333     0.474406666667     0.534966666667    -1.6954     
O10      O      0.330363333333     0.463010000000     0.520656666667    -1.88862    
O8       O      0.330263333333     0.353760000000     0.626810000000    -1.87259    
N4       N      0.015300000000     0.419066666667     0.564866666667    -0.0788666  
H4       H      0.034561000000     0.428228333333     0.560508666667     0.0925701  
N1       N      0.115200000000     0.412933333333     0.600000000000    -0.0763069  
H1A      H      0.099957666667     0.402058333333     0.608199333333     0.0716674  
N2       N      0.104700000000     0.436600000000     0.581033333333    -0.0306859  
N3       N      0.017166666667     0.398400000000     0.587533333333    -0.0354181  
C1       C      0.172700000000     0.384300000000     0.624766666667     1.29206    
C6       C      0.304600000000     0.369533333333     0.610866666667     1.38358    
C5       C      0.135733333333     0.473300000000     0.551733333333     1.27133    
C3       C      0.167133333333     0.429566666667     0.586866666667     0.372524   
H3       H      0.192073666667     0.431668666667     0.584659666667    -0.104168   
C10      C      0.303466666667     0.446966666667     0.524500000000     1.3436     
C8       C      0.289933333333     0.405966666667     0.562933333333     0.406021   
H8       H      0.263718666667     0.404387000000     0.557306333333    -0.112285   
C2       C      0.152766666667     0.408433333333     0.604600000000    -0.392143   
C9       C      0.312600000000     0.423866666667     0.549533333333    -0.430757   
C7       C      0.314566666667     0.390400000000     0.587066666667    -0.425285   
C4       C      0.136466666667     0.447066666667     0.572966666667    -0.399149   
Al2      Al     0.166666666667     0.500000000000     0.833333333333     7.12299    
Al1      Al     0.245060000000     0.477850000000     0.811670000000     7.33944    
Al3      Al     0.000000000000     0.500000000000     0.833333333333     7.85383    
O4       O      0.207776666667     0.449630000000     0.793820000000    -1.74744    
O2       O      0.216686666667     0.489840000000     0.841186666667    -3.20234    
H2       H      0.229463000000     0.490810666667     0.862663333333     0.821456   
O7       O      0.270813333333     0.462976666667     0.780403333333    -1.78292    
O1       O      0.282370000000     0.505060000000     0.827086666667    -3.3936     
H1       H      0.274220666667     0.523720666667     0.832347666667     0.876979   
O5       O      0.110493333333     0.340870000000     0.718516666667    -1.7287     
O9       O      0.269620000000     0.384636666667     0.675760000000    -1.7166     
O3       O      0.153183333333     0.467073333333     0.804033333333    -1.69529    
O6       O      0.160703333333     0.358926666667     0.701633333333    -1.69549    
O10      O      0.330363333333     0.370323333333     0.687323333333    -1.88872    
O8       O      0.330263333333     0.479573333333     0.793476666667    -1.87253    
N4       N      0.015300000000     0.414266666667     0.731533333333    -0.078863   
H4       H      0.034561000000     0.405105000000     0.727175333333     0.0925679  
N1       N      0.115200000000     0.420400000000     0.766666666667    -0.0763079  
H1A      H      0.099957666667     0.431275000000     0.774866000000     0.0716501  
N2       N      0.104700000000     0.396733333333     0.747700000000    -0.030667   
N3       N      0.017166666667     0.434933333333     0.754200000000    -0.0354398  
C1       C      0.172700000000     0.449033333333     0.791433333333     1.29197    
C6       C      0.304600000000     0.463800000000     0.777533333333     1.38347    
C5       C      0.135733333333     0.360033333333     0.718400000000     1.27145    
C3       C      0.167133333333     0.403766666667     0.753533333333     0.372527   
H3       H      0.192073666667     0.401664666667     0.751326333333    -0.104145   
C10      C      0.303466666667     0.386366666667     0.691166666667     1.34369    
C8       C      0.289933333333     0.427366666667     0.729600000000     0.406024   
H8       H      0.263718666667     0.428946333333     0.723973000000    -0.11233    
C2       C      0.152766666667     0.424900000000     0.771266666667    -0.392138   
C9       C      0.312600000000     0.409466666667     0.716200000000    -0.430795   
C7       C      0.314566666667     0.442933333333     0.753733333333    -0.425323   
C4       C      0.136466666667     0.386266666667     0.739633333333    -0.399128   
Al2      Al     0.166666666667     0.333333333333     0.666666666667     7.12359    
Al1      Al     0.088273333333     0.644516666667     0.688330000000     7.33195    
Al3      Al     0.000000000000     0.333333333333     0.666666666667     7.85449    
O4       O      0.125556666667     0.616296666667     0.706180000000    -1.74617    
O2       O      0.116646666667     0.656506666667     0.992146666667    -3.1955     
H2       H      0.103870333333     0.657477333333     0.970670000000     0.819581   
O7       O      0.062520000000     0.629643333333     0.719596666667    -1.78103    
O1       O      0.050963333333     0.338393333333     0.672913333333    -3.37934    
H1       H      0.059112666667     0.357054000000     0.667652333333     0.871871   
O5       O      0.222840000000     0.507536666667     0.781483333333    -1.72949    
O9       O      0.063713333333     0.551303333333     0.824240000000    -1.71478    
O3       O      0.180150000000     0.633740000000     0.695966666667    -1.69484    
O6       O      0.172630000000     0.525593333333     0.798366666667    -1.69567    
O10      O      0.002970000000     0.536990000000     0.812676666667    -1.881      
O8       O      0.003070000000     0.646240000000     0.706523333333    -1.86514    
N4       N      0.318033333333     0.580933333333     0.768466666667    -0.0722733  
H4       H      0.298772333333     0.571771666667     0.772824666667     0.0929897  
N1       N      0.218133333333     0.587066666667     0.733333333333    -0.0763595  
H1A      H      0.233375666667     0.597941666667     0.725134000000     0.07216    
N2       N      0.228633333333     0.563400000000     0.752300000000    -0.0302109  
N3       N      0.316166666667     0.601600000000     0.745800000000    -0.028798   
C1       C      0.160633333333     0.615700000000     0.708566666667     1.29134    
C6       C      0.028733333333     0.630466666667     0.722466666667     1.38138    
C5       C      0.197600000000     0.526700000000     0.781600000000     1.27179    
C3       C      0.166200000000     0.570433333333     0.746466666667     0.372364   
H3       H      0.141259666667     0.568331333333     0.748673666667    -0.104331   
C10      C      0.029866666667     0.553033333333     0.808833333333     1.34122    
C8       C      0.043400000000     0.594033333333     0.770400000000     0.411889   
H8       H      0.069614666667     0.595613000000     0.776027000000    -0.114711   
C2       C      0.180566666667     0.591566666667     0.728733333333    -0.391894   
C9       C      0.020733333333     0.576133333333     0.783800000000    -0.439838   
C7       C      0.018766666667     0.609600000000     0.746266666667    -0.434547   
C4       C      0.196866666667     0.552933333333     0.760366666667    -0.399162   
Al1      Al     0.088273333333     0.522150000000     0.854996666667     7.33245    
O4       O      0.125556666667     0.550370000000     0.872846666667    -1.74623    
O2       O      0.116646666667     0.510160000000     0.825480000000    -3.20107    
H2       H      0.103870333333     0.509189333333     0.804003333333     0.820715   
O7       O      0.062520000000     0.537023333333     0.886263333333    -1.78101    
O1       O      0.050963333333     0.494940000000     0.839580000000    -3.37911    
H1       H      0.059112666667     0.476279333333     0.834319000000     0.871799   
O5       O      0.222840000000     0.659130000000     0.948150000000    -1.72984    
O9       O      0.063713333333     0.615363333333     0.990906666667    -1.71182    
O3       O      0.180150000000     0.532926666667     0.862633333333    -1.69488    
O6       O      0.172630000000     0.641073333333     0.965033333333    -1.69319    
O10      O      0.002970000000     0.629676666667     0.979343333333    -1.87775    
O8       O      0.003070000000     0.520426666667     0.873190000000    -1.86513    
N4       N      0.318033333333     0.585733333333     0.935133333333    -0.0724064  
H4       H      0.298772333333     0.594895000000     0.939491333333     0.0931396  
N1       N      0.218133333333     0.579600000000     0.900000000000    -0.0763566  
H1A      H      0.233375666667     0.568725000000     0.891800666667     0.0722218  
N2       N      0.228633333333     0.603266666667     0.918966666667    -0.0301924  
N3       N      0.316166666667     0.565066666667     0.912466666667    -0.0287385  
C1       C      0.160633333333     0.550966666667     0.875233333333     1.29143    
C6       C      0.028733333333     0.536200000000     0.889133333333     1.38145    
C5       C      0.197600000000     0.639966666667     0.948266666667     1.27125    
C3       C      0.166200000000     0.596233333333     0.913133333333     0.372241   
H3       H      0.141259666667     0.598335333333     0.915340333333    -0.104227   
C10      C      0.029866666667     0.613633333333     0.975500000000     1.33953    
C8       C      0.043400000000     0.572633333333     0.937066666667     0.41148    
H8       H      0.069614666667     0.571053666667     0.942693666667    -0.114319   
C2       C      0.180566666667     0.575100000000     0.895400000000    -0.391775   
C9       C      0.020733333333     0.590533333333     0.950466666667    -0.438985   
C7       C      0.018766666667     0.557066666667     0.912933333333    -0.434257   
C4       C      0.196866666667     0.613733333333     0.927033333333    -0.398892   
Al1      Al     0.245060000000     0.355483333333     0.978336666667     7.34461    
O4       O      0.207776666667     0.383703333333     0.960486666667    -1.74763    
O2       O      0.216686666667     0.343493333333     0.674520000000    -3.20252    
H2       H      0.229463000000     0.342522666667     0.695996666667     0.821521   
O7       O      0.270813333333     0.370356666667     0.947070000000    -1.78324    
O1       O      0.282370000000     0.661606666667     0.993753333333    -3.39108    
H1       H      0.274220666667     0.642946000000     0.999014333333     0.876931   
O5       O      0.110493333333     0.492463333333     0.885183333333    -1.72855    
O9       O      0.269620000000     0.448696666667     0.842426666667    -1.71648    
O3       O      0.153183333333     0.366260000000     0.970700000000    -1.69291    
O6       O      0.160703333333     0.474406666667     0.868300000000    -1.69537    
O10      O      0.330363333333     0.463010000000     0.853990000000    -1.88859    
O8       O      0.330263333333     0.353760000000     0.960143333333    -1.86991    
N4       N      0.015300000000     0.419066666667     0.898200000000    -0.0788537  
H4       H      0.034561000000     0.428228333333     0.893842000000     0.0926257  
N1       N      0.115200000000     0.412933333333     0.933333333333    -0.0763754  
H1A      H      0.099957666667     0.402058333333     0.941532666667     0.0719281  
N2       N      0.104700000000     0.436600000000     0.914366666667    -0.0306024  
N3       N      0.017166666667     0.398400000000     0.920866666667    -0.0353106  
C1       C      0.172700000000     0.384300000000     0.958100000000     1.29162    
C6       C      0.304600000000     0.369533333333     0.944200000000     1.38306    
C5       C      0.135733333333     0.473300000000     0.885066666667     1.27134    
C3       C      0.167133333333     0.429566666667     0.920200000000     0.372422   
H3       H      0.192073666667     0.431668666667     0.917993000000    -0.104012   
C10      C      0.303466666667     0.446966666667     0.857833333333     1.34359    
C8       C      0.289933333333     0.405966666667     0.896266666667     0.405929   
H8       H      0.263718666667     0.404387000000     0.890639666667    -0.112217   
C2       C      0.152766666667     0.408433333333     0.937933333333    -0.391736   
C9       C      0.312600000000     0.423866666667     0.882866666667    -0.430669   
C7       C      0.314566666667     0.390400000000     0.920400000000    -0.42495    
C4       C      0.136466666667     0.447066666667     0.906300000000    -0.399012   
Al2      Al     0.166666666667     0.833333333333     0.166666666667     7.1222     
Al1      Al     0.245060000000     0.811183333333     0.145003333333     7.339      
Al3      Al     0.000000000000     0.833333333333     0.166666666667     7.85369    
O4       O      0.207776666667     0.782963333333     0.127153333333    -1.74758    
O2       O      0.216686666667     0.823173333333     0.174520000000    -3.20207    
H2       H      0.229463000000     0.824144000000     0.195996666667     0.821272   
O7       O      0.270813333333     0.796310000000     0.113736666667    -1.78307    
O1       O      0.282370000000     0.838393333333     0.160420000000    -3.39371    
H1       H      0.274220666667     0.857054000000     0.165681000000     0.877891   
O5       O      0.110493333333     0.674203333333     0.051850000000    -1.72673    
O9       O      0.269620000000     0.717970000000     0.009093333333    -1.71786    
O3       O      0.153183333333     0.800406666667     0.137366666667    -1.69538    
O6       O      0.160703333333     0.692260000000     0.034966666667    -1.69358    
O10      O      0.330363333333     0.703656666667     0.020656666667    -1.88696    
O8       O      0.330263333333     0.812906666667     0.126810000000    -1.87276    
N4       N      0.015300000000     0.747600000000     0.064866666667    -0.0789323  
H4       H      0.034561000000     0.738438333333     0.060508666667     0.0923164  
N1       N      0.115200000000     0.753733333333     0.100000000000    -0.0763697  
H1A      H      0.099957666667     0.764608333333     0.108199333333     0.0714096  
N2       N      0.104700000000     0.730066666667     0.081033333333    -0.0309225  
N3       N      0.017166666667     0.768266666667     0.087533333333    -0.0356449  
C1       C      0.172700000000     0.782366666667     0.124766666667     1.29174    
C6       C      0.304600000000     0.797133333333     0.110866666667     1.38335    
C5       C      0.135733333333     0.693366666667     0.051733333333     1.26977    
C3       C      0.167133333333     0.737100000000     0.086866666667     0.372121   
H3       H      0.192073666667     0.734998000000     0.084659666667    -0.104266   
C10      C      0.303466666667     0.719700000000     0.024500000000     1.34293    
C8       C      0.289933333333     0.760700000000     0.062933333333     0.405919   
H8       H      0.263718666667     0.762279666667     0.057306333333    -0.112649   
C2       C      0.152766666667     0.758233333333     0.104600000000    -0.392368   
C9       C      0.312600000000     0.742800000000     0.049533333333    -0.431076   
C7       C      0.314566666667     0.776266666667     0.087066666667    -0.42566    
C4       C      0.136466666667     0.719600000000     0.072966666667    -0.398974   
Al2      Al     0.166666666667     0.666666666667     0.000000000000     7.11143    
Al1      Al     0.088273333333     0.977850000000     0.021663333333     7.46844    
Al3      Al     0.000000000000     0.666666666667     0.000000000000     7.84121    
O4       O      0.125556666667     0.949630000000     0.039513333333    -1.75487    
O2       O      0.116646666667     0.989840000000     0.325480000000    -3.13652    
H2       H      0.103870333333     0.990810666667     0.304003333333     0.821118   
O7       O      0.062520000000     0.962976666667     0.052930000000    -1.78156    
O1       O      0.050963333333     0.671726666667     0.006246666667    -3.37504    
H1       H      0.059112666667     0.690387333333     0.000985666667     0.870285   
O5       O      0.222840000000     0.840870000000     0.114816666667    -1.72939    
O9       O      0.063713333333     0.884636666667     0.157573333333    -1.71255    
O3       O      0.180150000000     0.967073333333     0.029300000000    -1.61594    
O6       O      0.172630000000     0.858926666667     0.131700000000    -1.69462    
O10      O      0.002970000000     0.870323333333     0.146010000000    -1.88004    
O8       O      0.003070000000     0.979573333333     0.039856666667    -1.77625    
N4       N      0.318033333333     0.914266666667     0.101800000000    -0.0721182  
H4       H      0.298772333333     0.905105000000     0.106158000000     0.0950718  
N1       N      0.218133333333     0.920400000000     0.066666666667    -0.0784943  
H1A      H      0.233375666667     0.931275000000     0.058467333333     0.0780316  
N2       N      0.228633333333     0.896733333333     0.085633333333    -0.0290348  
N3       N      0.316166666667     0.934933333333     0.079133333333    -0.0267565  
C1       C      0.160633333333     0.949033333333     0.041900000000     1.27535    
C6       C      0.028733333333     0.963800000000     0.055800000000     1.36321    
C5       C      0.197600000000     0.860033333333     0.114933333333     1.27136    
C3       C      0.166200000000     0.903766666667     0.079800000000     0.369207   
H3       H      0.141259666667     0.901664666667     0.082007000000    -0.101719   
C10      C      0.029866666667     0.886366666667     0.142166666667     1.34078    
C8       C      0.043400000000     0.927366666667     0.103733333333     0.408255   
H8       H      0.069614666667     0.928946333333     0.109360333333    -0.108759   
C2       C      0.180566666667     0.924900000000     0.062066666667    -0.381034   
C9       C      0.020733333333     0.909466666667     0.117133333333    -0.435236   
C7       C      0.018766666667     0.942933333333     0.079600000000    -0.421914   
C4       C      0.196866666667     0.886266666667     0.093700000000    -0.396782   
Al1      Al     0.088273333333     0.855483333333     0.188330000000     7.33183    
O4       O      0.125556666667     0.883703333333     0.206180000000    -1.74405    
O2       O      0.116646666667     0.843493333333     0.158813333333    -3.20064    
H2       H      0.103870333333     0.842522666667     0.137336666667     0.820512   
O7       O      0.062520000000     0.870356666667     0.219596666667    -1.78007    
O1       O      0.050963333333     0.828273333333     0.172913333333    -3.37913    
H1       H      0.059112666667     0.809612666667     0.167652333333     0.871626   
O5       O      0.222840000000     0.992463333333     0.281483333333    -1.63788    
O9       O      0.063713333333     0.948696666667     0.324240000000    -1.7252     
O3       O      0.180150000000     0.866260000000     0.195966666667    -1.69375    
O6       O      0.172630000000     0.974406666667     0.298366666667    -1.60847    
O10      O      0.002970000000     0.963010000000     0.312676666667    -1.79942    
O8       O      0.003070000000     0.853760000000     0.206523333333    -1.86478    
N4       N      0.318033333333     0.919066666667     0.268466666667    -0.0738578  
H4       H      0.298772333333     0.928228333333     0.272824666667     0.0967401  
N1       N      0.218133333333     0.912933333333     0.233333333333    -0.0766868  
H1A      H      0.233375666667     0.902058333333     0.225134000000     0.0741759  
N2       N      0.228633333333     0.936600000000     0.252300000000    -0.0294085  
N3       N      0.316166666667     0.898400000000     0.245800000000    -0.0273348  
C1       C      0.160633333333     0.884300000000     0.208566666667     1.29001    
C6       C      0.028733333333     0.869533333333     0.222466666667     1.38138    
C5       C      0.197600000000     0.973300000000     0.281600000000     1.2251     
C3       C      0.166200000000     0.929566666667     0.246466666667     0.361681   
H3       H      0.141259666667     0.931668666667     0.248673666667    -0.0966279  
C10      C      0.029866666667     0.946966666667     0.308833333333     1.3237     
C8       C      0.043400000000     0.905966666667     0.270400000000     0.40895    
H8       H      0.069614666667     0.904387000000     0.276027000000    -0.112171   
C2       C      0.180566666667     0.908433333333     0.228733333333    -0.385244   
C9       C      0.020733333333     0.923866666667     0.283800000000    -0.429881   
C7       C      0.018766666667     0.890400000000     0.246266666667    -0.431938   
C4       C      0.196866666667     0.947066666667     0.260366666667    -0.377336   
Al1      Al     0.245060000000     0.688816666667     0.311670000000     7.33876    
O4       O      0.207776666667     0.717036666667     0.293820000000    -1.74749    
O2       O      0.216686666667     0.676826666667     0.007853333333    -3.20179    
H2       H      0.229463000000     0.675856000000     0.029330000000     0.821068   
O7       O      0.270813333333     0.703690000000     0.280403333333    -1.78292    
O1       O      0.282370000000     0.994940000000     0.327086666667    -3.21751    
H1       H      0.274220666667     0.976279333333     0.332347666667     0.843487   
O5       O      0.110493333333     0.825796666667     0.218516666667    -1.72878    
O9       O      0.269620000000     0.782030000000     0.175760000000    -1.71661    
O3       O      0.153183333333     0.699593333333     0.304033333333    -1.69531    
O6       O      0.160703333333     0.807740000000     0.201633333333    -1.69549    
O10      O      0.330363333333     0.796343333333     0.187323333333    -1.88877    
O8       O      0.330263333333     0.687093333333     0.293476666667    -1.87252    
N4       N      0.015300000000     0.752400000000     0.231533333333    -0.0788931  
H4       H      0.034561000000     0.761561666667     0.227175333333     0.0923629  
N1       N      0.115200000000     0.746266666667     0.266666666667    -0.0763482  
H1A      H      0.099957666667     0.735391666667     0.274866000000     0.0714616  
N2       N      0.104700000000     0.769933333333     0.247700000000    -0.0308649  
N3       N      0.017166666667     0.731733333333     0.254200000000    -0.0355958  
C1       C      0.172700000000     0.717633333333     0.291433333333     1.29181    
C6       C      0.304600000000     0.702866666667     0.277533333333     1.38331    
C5       C      0.135733333333     0.806633333333     0.218400000000     1.27115    
C3       C      0.167133333333     0.762900000000     0.253533333333     0.37243    
H3       H      0.192073666667     0.765002000000     0.251326333333    -0.104351   
C10      C      0.303466666667     0.780300000000     0.191166666667     1.34349    
C8       C      0.289933333333     0.739300000000     0.229600000000     0.405949   
H8       H      0.263718666667     0.737720333333     0.223973000000    -0.11249    
C2       C      0.152766666667     0.741766666667     0.271266666667    -0.392388   
C9       C      0.312600000000     0.757200000000     0.216200000000    -0.431051   
C7       C      0.314566666667     0.723733333333     0.253733333333    -0.425511   
C4       C      0.136466666667     0.780400000000     0.239633333333    -0.399389   
Al2      Al     0.166666666667     0.833333333333     0.500000000000     7.12222    
Al1      Al     0.245060000000     0.811183333333     0.478336666667     7.339      
Al3      Al     0.000000000000     0.833333333333     0.500000000000     7.85366    
O4       O      0.207776666667     0.782963333333     0.460486666667    -1.74757    
O2       O      0.216686666667     0.823173333333     0.507853333333    -3.20208    
H2       H      0.229463000000     0.824144000000     0.529330000000     0.821265   
O7       O      0.270813333333     0.796310000000     0.447070000000    -1.78303    
O1       O      0.282370000000     0.838393333333     0.493753333333    -3.39371    
H1       H      0.274220666667     0.857054000000     0.499014333333     0.877882   
O5       O      0.110493333333     0.674203333333     0.385183333333    -1.72865    
O9       O      0.269620000000     0.717970000000     0.342426666667    -1.71656    
O3       O      0.153183333333     0.800406666667     0.470700000000    -1.69537    
O6       O      0.160703333333     0.692260000000     0.368300000000    -1.69544    
O10      O      0.330363333333     0.703656666667     0.353990000000    -1.88864    
O8       O      0.330263333333     0.812906666667     0.460143333333    -1.87272    
N4       N      0.015300000000     0.747600000000     0.398200000000    -0.0789012  
H4       H      0.034561000000     0.738438333333     0.393842000000     0.0923741  
N1       N      0.115200000000     0.753733333333     0.433333333333    -0.0763433  
H1A      H      0.099957666667     0.764608333333     0.441532666667     0.0714308  
N2       N      0.104700000000     0.730066666667     0.414366666667    -0.0308433  
N3       N      0.017166666667     0.768266666667     0.420866666667    -0.0356157  
C1       C      0.172700000000     0.782366666667     0.458100000000     1.29179    
C6       C      0.304600000000     0.797133333333     0.444200000000     1.38336    
C5       C      0.135733333333     0.693366666667     0.385066666667     1.27119    
C3       C      0.167133333333     0.737100000000     0.420200000000     0.372433   
H3       H      0.192073666667     0.734998000000     0.417993000000    -0.104338   
C10      C      0.303466666667     0.719700000000     0.357833333333     1.34345    
C8       C      0.289933333333     0.760700000000     0.396266666667     0.405957   
H8       H      0.263718666667     0.762279666667     0.390639666667    -0.112524   
C2       C      0.152766666667     0.758233333333     0.437933333333    -0.392422   
C9       C      0.312600000000     0.742800000000     0.382866666667    -0.431041   
C7       C      0.314566666667     0.776266666667     0.420400000000    -0.425584   
C4       C      0.136466666667     0.719600000000     0.406300000000    -0.399351   
Al2      Al     0.166666666667     0.666666666667     0.333333333333     7.1224     
Al1      Al     0.088273333333     0.977850000000     0.354996666667     7.47806    
Al3      Al     0.000000000000     0.666666666667     0.333333333333     7.85326    
O4       O      0.125556666667     0.949630000000     0.372846666667    -1.75648    
O2       O      0.116646666667     0.989840000000     0.658813333333    -3.1365     
H2       H      0.103870333333     0.990810666667     0.637336666667     0.821105   
O7       O      0.062520000000     0.962976666667     0.386263333333    -1.78343    
O1       O      0.050963333333     0.671726666667     0.339580000000    -3.37895    
H1       H      0.059112666667     0.690387333333     0.334319000000     0.871638   
O5       O      0.222840000000     0.840870000000     0.448150000000    -1.72932    
O9       O      0.063713333333     0.884636666667     0.490906666667    -1.71256    
O3       O      0.180150000000     0.967073333333     0.362633333333    -1.6177     
O6       O      0.172630000000     0.858926666667     0.465033333333    -1.69461    
O10      O      0.002970000000     0.870323333333     0.479343333333    -1.88003    
O8       O      0.003070000000     0.979573333333     0.373190000000    -1.77828    
N4       N      0.318033333333     0.914266666667     0.435133333333    -0.0720919  
H4       H      0.298772333333     0.905105000000     0.439491333333     0.0951028  
N1       N      0.218133333333     0.920400000000     0.400000000000    -0.0784173  
H1A      H      0.233375666667     0.931275000000     0.391800666667     0.0781738  
N2       N      0.228633333333     0.896733333333     0.418966666667    -0.0289614  
N3       N      0.316166666667     0.934933333333     0.412466666667    -0.0265849  
C1       C      0.160633333333     0.949033333333     0.375233333333     1.27678    
C6       C      0.028733333333     0.963800000000     0.389133333333     1.36474    
C5       C      0.197600000000     0.860033333333     0.448266666667     1.27141    
C3       C      0.166200000000     0.903766666667     0.413133333333     0.369482   
H3       H      0.141259666667     0.901664666667     0.415340333333    -0.101726   
C10      C      0.029866666667     0.886366666667     0.475500000000     1.34082    
C8       C      0.043400000000     0.927366666667     0.437066666667     0.408558   
H8       H      0.069614666667     0.928946333333     0.442693666667    -0.108858   
C2       C      0.180566666667     0.924900000000     0.395400000000    -0.381297   
C9       C      0.020733333333     0.909466666667     0.450466666667    -0.43531    
C7       C      0.018766666667     0.942933333333     0.412933333333    -0.422276   
C4       C      0.196866666667     0.886266666667     0.427033333333    -0.396793   
Al1      Al     0.088273333333     0.855483333333     0.521663333333     7.33182    
O4       O      0.125556666667     0.883703333333     0.539513333333    -1.74406    
O2       O      0.116646666667     0.843493333333     0.492146666667    -3.20066    
H2       H      0.103870333333     0.842522666667     0.470670000000     0.820557   
O7       O      0.062520000000     0.870356666667     0.552930000000    -1.78008    
O1       O      0.050963333333     0.828273333333     0.506246666667    -3.37912    
H1       H      0.059112666667     0.809612666667     0.500985666667     0.871623   
O5       O      0.222840000000     0.992463333333     0.614816666667    -1.63788    
O9       O      0.063713333333     0.948696666667     0.657573333333    -1.7252     
O3       O      0.180150000000     0.866260000000     0.529300000000    -1.69376    
O6       O      0.172630000000     0.974406666667     0.631700000000    -1.60847    
O10      O      0.002970000000     0.963010000000     0.646010000000    -1.79942    
O8       O      0.003070000000     0.853760000000     0.539856666667    -1.86479    
N4       N      0.318033333333     0.919066666667     0.601800000000    -0.07386    
H4       H      0.298772333333     0.928228333333     0.606158000000     0.0967302  
N1       N      0.218133333333     0.912933333333     0.566666666667    -0.0766885  
H1A      H      0.233375666667     0.902058333333     0.558467333333     0.0741631  
N2       N      0.228633333333     0.936600000000     0.585633333333    -0.0294184  
N3       N      0.316166666667     0.898400000000     0.579133333333    -0.0273445  
C1       C      0.160633333333     0.884300000000     0.541900000000     1.29001    
C6       C      0.028733333333     0.869533333333     0.555800000000     1.38137    
C5       C      0.197600000000     0.973300000000     0.614933333333     1.22509    
C3       C      0.166200000000     0.929566666667     0.579800000000     0.361677   
H3       H      0.141259666667     0.931668666667     0.582007000000    -0.0966397  
C10      C      0.029866666667     0.946966666667     0.642166666667     1.32369    
C8       C      0.043400000000     0.905966666667     0.603733333333     0.408946   
H8       H      0.069614666667     0.904387000000     0.609360333333    -0.112181   
C2       C      0.180566666667     0.908433333333     0.562066666667    -0.385262   
C9       C      0.020733333333     0.923866666667     0.617133333333    -0.429894   
C7       C      0.018766666667     0.890400000000     0.579600000000    -0.431952   
C4       C      0.196866666667     0.947066666667     0.593700000000    -0.377349   
Al1      Al     0.245060000000     0.688816666667     0.645003333333     7.3387     
O4       O      0.207776666667     0.717036666667     0.627153333333    -1.74749    
O2       O      0.216686666667     0.676826666667     0.341186666667    -3.20213    
H2       H      0.229463000000     0.675856000000     0.362663333333     0.82127    
O7       O      0.270813333333     0.703690000000     0.613736666667    -1.78292    
O1       O      0.282370000000     0.994940000000     0.660420000000    -3.21749    
H1       H      0.274220666667     0.976279333333     0.665681000000     0.843476   
O5       O      0.110493333333     0.825796666667     0.551850000000    -1.72879    
O9       O      0.269620000000     0.782030000000     0.509093333333    -1.71663    
O3       O      0.153183333333     0.699593333333     0.637366666667    -1.69531    
O6       O      0.160703333333     0.807740000000     0.534966666667    -1.6955     
O10      O      0.330363333333     0.796343333333     0.520656666667    -1.88878    
O8       O      0.330263333333     0.687093333333     0.626810000000    -1.87252    
N4       N      0.015300000000     0.752400000000     0.564866666667    -0.0788954  
H4       H      0.034561000000     0.761561666667     0.560508666667     0.0923513  
N1       N      0.115200000000     0.746266666667     0.600000000000    -0.0763503  
H1A      H      0.099957666667     0.735391666667     0.608199333333     0.0714508  
N2       N      0.104700000000     0.769933333333     0.581033333333    -0.0308736  
N3       N      0.017166666667     0.731733333333     0.587533333333    -0.0356057  
C1       C      0.172700000000     0.717633333333     0.624766666667     1.2918     
C6       C      0.304600000000     0.702866666667     0.610866666667     1.3833     
C5       C      0.135733333333     0.806633333333     0.551733333333     1.27115    
C3       C      0.167133333333     0.762900000000     0.586866666667     0.372426   
H3       H      0.192073666667     0.765002000000     0.584659666667    -0.104362   
C10      C      0.303466666667     0.780300000000     0.524500000000     1.34349    
C8       C      0.289933333333     0.739300000000     0.562933333333     0.405946   
H8       H      0.263718666667     0.737720333333     0.557306333333    -0.112504   
C2       C      0.152766666667     0.741766666667     0.604600000000    -0.392402   
C9       C      0.312600000000     0.757200000000     0.549533333333    -0.431069   
C7       C      0.314566666667     0.723733333333     0.587066666667    -0.425525   
C4       C      0.136466666667     0.780400000000     0.572966666667    -0.399404   
Al2      Al     0.166666666667     0.833333333333     0.833333333333     7.12221    
Al1      Al     0.245060000000     0.811183333333     0.811670000000     7.33898    
Al3      Al     0.000000000000     0.833333333333     0.833333333333     7.85365    
O4       O      0.207776666667     0.782963333333     0.793820000000    -1.74758    
O2       O      0.216686666667     0.823173333333     0.841186666667    -3.20209    
H2       H      0.229463000000     0.824144000000     0.862663333333     0.821315   
O7       O      0.270813333333     0.796310000000     0.780403333333    -1.78303    
O1       O      0.282370000000     0.838393333333     0.827086666667    -3.3937     
H1       H      0.274220666667     0.857054000000     0.832347666667     0.877881   
O5       O      0.110493333333     0.674203333333     0.718516666667    -1.72865    
O9       O      0.269620000000     0.717970000000     0.675760000000    -1.71656    
O3       O      0.153183333333     0.800406666667     0.804033333333    -1.69538    
O6       O      0.160703333333     0.692260000000     0.701633333333    -1.69544    
O10      O      0.330363333333     0.703656666667     0.687323333333    -1.88864    
O8       O      0.330263333333     0.812906666667     0.793476666667    -1.87272    
N4       N      0.015300000000     0.747600000000     0.731533333333    -0.0789018  
H4       H      0.034561000000     0.738438333333     0.727175333333     0.0923655  
N1       N      0.115200000000     0.753733333333     0.766666666667    -0.0763445  
H1A      H      0.099957666667     0.764608333333     0.774866000000     0.0714207  
N2       N      0.104700000000     0.730066666667     0.747700000000    -0.0308509  
N3       N      0.017166666667     0.768266666667     0.754200000000    -0.0356223  
C1       C      0.172700000000     0.782366666667     0.791433333333     1.29179    
C6       C      0.304600000000     0.797133333333     0.777533333333     1.38335    
C5       C      0.135733333333     0.693366666667     0.718400000000     1.27118    
C3       C      0.167133333333     0.737100000000     0.753533333333     0.372429   
H3       H      0.192073666667     0.734998000000     0.751326333333    -0.104348   
C10      C      0.303466666667     0.719700000000     0.691166666667     1.34344    
C8       C      0.289933333333     0.760700000000     0.729600000000     0.405953   
H8       H      0.263718666667     0.762279666667     0.723973000000    -0.112534   
C2       C      0.152766666667     0.758233333333     0.771266666667    -0.392436   
C9       C      0.312600000000     0.742800000000     0.716200000000    -0.431053   
C7       C      0.314566666667     0.776266666667     0.753733333333    -0.425596   
C4       C      0.136466666667     0.719600000000     0.739633333333    -0.399361   
Al2      Al     0.166666666667     0.666666666667     0.666666666667     7.12234    
Al1      Al     0.088273333333     0.977850000000     0.688330000000     7.47801    
Al3      Al     0.000000000000     0.666666666667     0.666666666667     7.85321    
O4       O      0.125556666667     0.949630000000     0.706180000000    -1.75648    
O2       O      0.116646666667     0.989840000000     0.992146666667    -3.13115    
H2       H      0.103870333333     0.990810666667     0.970670000000     0.820092   
O7       O      0.062520000000     0.962976666667     0.719596666667    -1.78343    
O1       O      0.050963333333     0.671726666667     0.672913333333    -3.37893    
H1       H      0.059112666667     0.690387333333     0.667652333333     0.871628   
O5       O      0.222840000000     0.840870000000     0.781483333333    -1.72933    
O9       O      0.063713333333     0.884636666667     0.824240000000    -1.71257    
O3       O      0.180150000000     0.967073333333     0.695966666667    -1.6177     
O6       O      0.172630000000     0.858926666667     0.798366666667    -1.69462    
O10      O      0.002970000000     0.870323333333     0.812676666667    -1.88004    
O8       O      0.003070000000     0.979573333333     0.706523333333    -1.77828    
N4       N      0.318033333333     0.914266666667     0.768466666667    -0.0720937  
H4       H      0.298772333333     0.905105000000     0.772824666667     0.0950938  
N1       N      0.218133333333     0.920400000000     0.733333333333    -0.0784192  
H1A      H      0.233375666667     0.931275000000     0.725134000000     0.0781644  
N2       N      0.228633333333     0.896733333333     0.752300000000    -0.0289693  
N3       N      0.316166666667     0.934933333333     0.745800000000    -0.0265931  
C1       C      0.160633333333     0.949033333333     0.708566666667     1.27677    
C6       C      0.028733333333     0.963800000000     0.722466666667     1.36473    
C5       C      0.197600000000     0.860033333333     0.781600000000     1.2714     
C3       C      0.166200000000     0.903766666667     0.746466666667     0.369478   
H3       H      0.141259666667     0.901664666667     0.748673666667    -0.101735   
C10      C      0.029866666667     0.886366666667     0.808833333333     1.34082    
C8       C      0.043400000000     0.927366666667     0.770400000000     0.408553   
H8       H      0.069614666667     0.928946333333     0.776027000000    -0.108866   
C2       C      0.180566666667     0.924900000000     0.728733333333    -0.381309   
C9       C      0.020733333333     0.909466666667     0.783800000000    -0.435319   
C7       C      0.018766666667     0.942933333333     0.746266666667    -0.422283   
C4       C      0.196866666667     0.886266666667     0.760366666667    -0.396806   
Al1      Al     0.088273333333     0.855483333333     0.854996666667     7.33179    
O4       O      0.125556666667     0.883703333333     0.872846666667    -1.74402    
O2       O      0.116646666667     0.843493333333     0.825480000000    -3.20066    
H2       H      0.103870333333     0.842522666667     0.804003333333     0.820547   
O7       O      0.062520000000     0.870356666667     0.886263333333    -1.78       
O1       O      0.050963333333     0.828273333333     0.839580000000    -3.37911    
H1       H      0.059112666667     0.809612666667     0.834319000000     0.871615   
O5       O      0.222840000000     0.992463333333     0.948150000000    -1.6383     
O9       O      0.063713333333     0.948696666667     0.990906666667    -1.72235    
O3       O      0.180150000000     0.866260000000     0.862633333333    -1.69373    
O6       O      0.172630000000     0.974406666667     0.965033333333    -1.6061     
O10      O      0.002970000000     0.963010000000     0.979343333333    -1.79629    
O8       O      0.003070000000     0.853760000000     0.873190000000    -1.86473    
N4       N      0.318033333333     0.919066666667     0.935133333333    -0.0739901  
H4       H      0.298772333333     0.928228333333     0.939491333333     0.0968775  
N1       N      0.218133333333     0.912933333333     0.900000000000    -0.076687   
H1A      H      0.233375666667     0.902058333333     0.891800666667     0.0742075  
N2       N      0.228633333333     0.936600000000     0.918966666667    -0.0293806  
N3       N      0.316166666667     0.898400000000     0.912466666667    -0.0273084  
C1       C      0.160633333333     0.884300000000     0.875233333333     1.29       
C6       C      0.028733333333     0.869533333333     0.889133333333     1.38133    
C5       C      0.197600000000     0.973300000000     0.948266666667     1.22468    
C3       C      0.166200000000     0.929566666667     0.913133333333     0.36156    
H3       H      0.141259666667     0.931668666667     0.915340333333    -0.0965124  
C10      C      0.029866666667     0.946966666667     0.975500000000     1.32209    
C8       C      0.043400000000     0.905966666667     0.937066666667     0.40854    
H8       H      0.069614666667     0.904387000000     0.942693666667    -0.111834   
C2       C      0.180566666667     0.908433333333     0.895400000000    -0.385137   
C9       C      0.020733333333     0.923866666667     0.950466666667    -0.429078   
C7       C      0.018766666667     0.890400000000     0.912933333333    -0.431698   
C4       C      0.196866666667     0.947066666667     0.927033333333    -0.377061   
Al1      Al     0.245060000000     0.688816666667     0.978336666667     7.34336    
O4       O      0.207776666667     0.717036666667     0.960486666667    -1.74758    
O2       O      0.216686666667     0.676826666667     0.674520000000    -3.20212    
H2       H      0.229463000000     0.675856000000     0.695996666667     0.821259   
O7       O      0.270813333333     0.703690000000     0.947070000000    -1.78319    
O1       O      0.282370000000     0.994940000000     0.993753333333    -3.21522    
H1       H      0.274220666667     0.976279333333     0.999014333333     0.843502   
O5       O      0.110493333333     0.825796666667     0.885183333333    -1.7287     
O9       O      0.269620000000     0.782030000000     0.842426666667    -1.71662    
O3       O      0.153183333333     0.699593333333     0.970700000000    -1.69286    
O6       O      0.160703333333     0.807740000000     0.868300000000    -1.69547    
O10      O      0.330363333333     0.796343333333     0.853990000000    -1.88875    
O8       O      0.330263333333     0.687093333333     0.960143333333    -1.86984    
N4       N      0.015300000000     0.752400000000     0.898200000000    -0.0788825  
H4       H      0.034561000000     0.761561666667     0.893842000000     0.0924069  
N1       N      0.115200000000     0.746266666667     0.933333333333    -0.0764189  
H1A      H      0.099957666667     0.735391666667     0.941532666667     0.0717115  
N2       N      0.104700000000     0.769933333333     0.914366666667    -0.0307901  
N3       N      0.017166666667     0.731733333333     0.920866666667    -0.0354982  
C1       C      0.172700000000     0.717633333333     0.958100000000     1.29136    
C6       C      0.304600000000     0.702866666667     0.944200000000     1.38278    
C5       C      0.135733333333     0.806633333333     0.885066666667     1.27115    
C3       C      0.167133333333     0.762900000000     0.920200000000     0.372325   
H3       H      0.192073666667     0.765002000000     0.917993000000    -0.104206   
C10      C      0.303466666667     0.780300000000     0.857833333333     1.34348    
C8       C      0.289933333333     0.739300000000     0.896266666667     0.405853   
H8       H      0.263718666667     0.737720333333     0.890639666667    -0.112437   
C2       C      0.152766666667     0.741766666667     0.937933333333    -0.391995   
C9       C      0.312600000000     0.757200000000     0.882866666667    -0.430981   
C7       C      0.314566666667     0.723733333333     0.920400000000    -0.42519    
C4       C      0.136466666667     0.780400000000     0.906300000000    -0.399267   
Al2      Al     0.500000000000     0.166666666667     0.166666666667     7.12458    
Al1      Al     0.578393333333     0.144516666667     0.145003333333     7.33895    
Al3      Al     0.333333333333     0.166666666667     0.166666666667     7.92337    
O4       O      0.541110000000     0.116296666667     0.127153333333    -1.74844    
O2       O      0.550020000000     0.156506666667     0.174520000000    -3.2027     
H2       H      0.562796333333     0.157477333333     0.195996666667     0.82164    
O7       O      0.604146666667     0.129643333333     0.113736666667    -1.78288    
O1       O      0.615703333333     0.171726666667     0.160420000000    -3.39322    
H1       H      0.607554000000     0.190387333333     0.165681000000     0.87706    
O5       O      0.443826666667     0.007536666667     0.051850000000    -1.77158    
O9       O      0.602953333333     0.051303333333     0.009093333333    -1.65948    
O3       O      0.486516666667     0.133740000000     0.137366666667    -1.69575    
O6       O      0.494036666667     0.025593333333     0.034966666667    -1.649      
O10      O      0.663696666667     0.036990000000     0.020656666667    -1.8182     
O8       O      0.663596666667     0.146240000000     0.126810000000    -1.87229    
N4       N      0.348633333333     0.080933333333     0.064866666667    -0.0757967  
H4       H      0.367894333333     0.071771666667     0.060508666667     0.0920022  
N1       N      0.448533333333     0.087066666667     0.100000000000    -0.0767754  
H1A      H      0.433291000000     0.097941666667     0.108199333333     0.0710033  
N2       N      0.438033333333     0.063400000000     0.081033333333    -0.0322377  
N3       N      0.350500000000     0.101600000000     0.087533333333    -0.0300364  
C1       C      0.506033333333     0.115700000000     0.124766666667     1.29148    
C6       C      0.637933333333     0.130466666667     0.110866666667     1.38177    
C5       C      0.469066666667     0.026700000000     0.051733333333     1.25979    
C3       C      0.500466666667     0.070433333333     0.086866666667     0.369467   
H3       H      0.525407000000     0.068331333333     0.084659666667    -0.105436   
C10      C      0.636800000000     0.053033333333     0.024500000000     1.29431    
C8       C      0.623266666667     0.094033333333     0.062933333333     0.395222   
H8       H      0.597052000000     0.095613000000     0.057306333333    -0.108354   
C2       C      0.486100000000     0.091566666667     0.104600000000    -0.392842   
C9       C      0.645933333333     0.076133333333     0.049533333333    -0.416782   
C7       C      0.647900000000     0.109600000000     0.087066666667    -0.422787   
C4       C      0.469800000000     0.052933333333     0.072966666667    -0.399627   
Al2      Al     0.500000000000     0.000000000000     0.000000000000     6.7728     
Al1      Al     0.421606666667     0.311183333333     0.021663333333     7.33057    
Al3      Al     0.333333333333     0.000000000000     0.000000000000     7.53493    
O4       O      0.458890000000     0.282963333333     0.039513333333    -1.74585    
O2       O      0.449980000000     0.323173333333     0.325480000000    -3.20287    
H2       H      0.437203666667     0.324144000000     0.304003333333     0.821603   
O7       O      0.395853333333     0.296310000000     0.052930000000    -1.78107    
O1       O      0.384296666667     0.005060000000     0.006246666667    -3.37194    
H1       H      0.392446000000     0.023720666667     0.000985666667     0.867014   
O5       O      0.556173333333     0.174203333333     0.114816666667    -1.72912    
O9       O      0.397046666667     0.217970000000     0.157573333333    -1.7164     
O3       O      0.513483333333     0.300406666667     0.029300000000    -1.69359    
O6       O      0.505963333333     0.192260000000     0.131700000000    -1.69562    
O10      O      0.336303333333     0.203656666667     0.146010000000    -1.88842    
O8       O      0.336403333333     0.312906666667     0.039856666667    -1.87049    
N4       N      0.651366666667     0.247600000000     0.101800000000    -0.0722737  
H4       H      0.632105666667     0.238438333333     0.106158000000     0.093175   
N1       N      0.551466666667     0.253733333333     0.066666666667    -0.0763588  
H1A      H      0.566709000000     0.264608333333     0.058467333333     0.0722226  
N2       N      0.561966666667     0.230066666667     0.085633333333    -0.0300786  
N3       N      0.649500000000     0.268266666667     0.079133333333    -0.0287895  
C1       C      0.493966666667     0.282366666667     0.041900000000     1.29076    
C6       C      0.362066666667     0.297133333333     0.055800000000     1.38208    
C5       C      0.530933333333     0.193366666667     0.114933333333     1.27197    
C3       C      0.499533333333     0.237100000000     0.079800000000     0.372323   
H3       H      0.474593000000     0.234998000000     0.082007000000    -0.103964   
C10      C      0.363200000000     0.219700000000     0.142166666667     1.3436     
C8       C      0.376733333333     0.260700000000     0.103733333333     0.405733   
H8       H      0.402948000000     0.262279666667     0.109360333333    -0.11208    
C2       C      0.513900000000     0.258233333333     0.062066666667    -0.39148    
C9       C      0.354066666667     0.242800000000     0.117133333333    -0.430474   
C7       C      0.352100000000     0.276266666667     0.079600000000    -0.424788   
C4       C      0.530200000000     0.219600000000     0.093700000000    -0.39881    
Al1      Al     0.421606666667     0.188816666667     0.188330000000     7.33971    
O4       O      0.458890000000     0.217036666667     0.206180000000    -1.74734    
O2       O      0.449980000000     0.176826666667     0.158813333333    -3.20275    
H2       H      0.437203666667     0.175856000000     0.137336666667     0.821578   
O7       O      0.395853333333     0.203690000000     0.219596666667    -1.78275    
O1       O      0.384296666667     0.161606666667     0.172913333333    -3.39342    
H1       H      0.392446000000     0.142946000000     0.167652333333     0.876236   
O5       O      0.556173333333     0.325796666667     0.281483333333    -1.72952    
O9       O      0.397046666667     0.282030000000     0.324240000000    -1.71649    
O3       O      0.513483333333     0.199593333333     0.195966666667    -1.69516    
O6       O      0.505963333333     0.307740000000     0.298366666667    -1.69582    
O10      O      0.336303333333     0.296343333333     0.312676666667    -1.88864    
O8       O      0.336403333333     0.187093333333     0.206523333333    -1.87218    
N4       N      0.651366666667     0.252400000000     0.268466666667    -0.072235   
H4       H      0.632105666667     0.261561666667     0.272824666667     0.0932025  
N1       N      0.551466666667     0.246266666667     0.233333333333    -0.0762929  
H1A      H      0.566709000000     0.235391666667     0.225134000000     0.0724106  
N2       N      0.561966666667     0.269933333333     0.252300000000    -0.0300441  
N3       N      0.649500000000     0.231733333333     0.245800000000    -0.0285727  
C1       C      0.493966666667     0.217633333333     0.208566666667     1.29217    
C6       C      0.362066666667     0.202866666667     0.222466666667     1.38357    
C5       C      0.530933333333     0.306633333333     0.281600000000     1.27206    
C3       C      0.499533333333     0.262900000000     0.246466666667     0.372605   
H3       H      0.474593000000     0.265002000000     0.248673666667    -0.104035   
C10      C      0.363200000000     0.280300000000     0.308833333333     1.34374    
C8       C      0.376733333333     0.239300000000     0.270400000000     0.406027   
H8       H      0.402948000000     0.237720333333     0.276027000000    -0.11207    
C2       C      0.513900000000     0.241766666667     0.228733333333    -0.391705   
C9       C      0.354066666667     0.257200000000     0.283800000000    -0.430524   
C7       C      0.352100000000     0.223733333333     0.246266666667    -0.424976   
C4       C      0.530200000000     0.280400000000     0.260366666667    -0.398957   
Al1      Al     0.578393333333     0.022150000000     0.311670000000     7.03813    
O4       O      0.541110000000     0.050370000000     0.293820000000    -1.6899     
O2       O      0.550020000000     0.010160000000     0.007853333333    -3.08896    
H2       H      0.562796333333     0.009189333333     0.029330000000     0.783335   
O7       O      0.604146666667     0.037023333333     0.280403333333    -1.73022    
O1       O      0.615703333333     0.328273333333     0.327086666667    -3.39377    
H1       H      0.607554000000     0.309612666667     0.332347666667     0.877135   
O5       O      0.443826666667     0.159130000000     0.218516666667    -1.72909    
O9       O      0.602953333333     0.115363333333     0.175760000000    -1.71759    
O3       O      0.486516666667     0.032926666667     0.304033333333    -1.64102    
O6       O      0.494036666667     0.141073333333     0.201633333333    -1.69611    
O10      O      0.663696666667     0.129676666667     0.187323333333    -1.88881    
O8       O      0.663596666667     0.020426666667     0.293476666667    -1.81165    
N4       N      0.348633333333     0.085733333333     0.231533333333    -0.0729759  
H4       H      0.367894333333     0.094895000000     0.227175333333     0.0918245  
N1       N      0.448533333333     0.079600000000     0.266666666667    -0.0787926  
H1A      H      0.433291000000     0.068725000000     0.274866000000     0.069865   
N2       N      0.438033333333     0.103266666667     0.247700000000    -0.031137   
N3       N      0.350500000000     0.065066666667     0.254200000000    -0.0330111  
C1       C      0.506033333333     0.050966666667     0.291433333333     1.24841    
C6       C      0.637933333333     0.036200000000     0.277533333333     1.33582    
C5       C      0.469066666667     0.139966666667     0.218400000000     1.27082    
C3       C      0.500466666667     0.096233333333     0.253533333333     0.363718   
H3       H      0.525407000000     0.098335333333     0.251326333333    -0.101824   
C10      C      0.636800000000     0.113633333333     0.191166666667     1.3422     
C8       C      0.623266666667     0.072633333333     0.229600000000     0.396955   
H8       H      0.597052000000     0.071053666667     0.223973000000    -0.112618   
C2       C      0.486100000000     0.075100000000     0.271266666667    -0.381722   
C9       C      0.645933333333     0.090533333333     0.216200000000    -0.430041   
C7       C      0.647900000000     0.057066666667     0.253733333333    -0.415644   
C4       C      0.469800000000     0.113733333333     0.239633333333    -0.397016   
Al2      Al     0.500000000000     0.166666666667     0.500000000000     7.12459    
Al1      Al     0.578393333333     0.144516666667     0.478336666667     7.33895    
Al3      Al     0.333333333333     0.166666666667     0.500000000000     7.92335    
O4       O      0.541110000000     0.116296666667     0.460486666667    -1.74844    
O2       O      0.550020000000     0.156506666667     0.507853333333    -3.20271    
H2       H      0.562796333333     0.157477333333     0.529330000000     0.821633   
O7       O      0.604146666667     0.129643333333     0.447070000000    -1.78283    
O1       O      0.615703333333     0.171726666667     0.493753333333    -3.39322    
H1       H      0.607554000000     0.190387333333     0.499014333333     0.877051   
O5       O      0.443826666667     0.007536666667     0.385183333333    -1.7735     
O9       O      0.602953333333     0.051303333333     0.342426666667    -1.65819    
O3       O      0.486516666667     0.133740000000     0.470700000000    -1.69574    
O6       O      0.494036666667     0.025593333333     0.368300000000    -1.65086    
O10      O      0.663696666667     0.036990000000     0.353990000000    -1.81987    
O8       O      0.663596666667     0.146240000000     0.460143333333    -1.87225    
N4       N      0.348633333333     0.080933333333     0.398200000000    -0.0757629  
H4       H      0.367894333333     0.071771666667     0.393842000000     0.0920601  
N1       N      0.448533333333     0.087066666667     0.433333333333    -0.076749   
H1A      H      0.433291000000     0.097941666667     0.441532666667     0.0710247  
N2       N      0.438033333333     0.063400000000     0.414366666667    -0.0321585  
N3       N      0.350500000000     0.101600000000     0.420866666667    -0.030005   
C1       C      0.506033333333     0.115700000000     0.458100000000     1.29153    
C6       C      0.637933333333     0.130466666667     0.444200000000     1.38179    
C5       C      0.469066666667     0.026700000000     0.385066666667     1.26122    
C3       C      0.500466666667     0.070433333333     0.420200000000     0.369779   
H3       H      0.525407000000     0.068331333333     0.417993000000    -0.105508   
C10      C      0.636800000000     0.053033333333     0.357833333333     1.29483    
C8       C      0.623266666667     0.094033333333     0.396266666667     0.395259   
H8       H      0.597052000000     0.095613000000     0.390639666667    -0.108229   
C2       C      0.486100000000     0.091566666667     0.437933333333    -0.392896   
C9       C      0.645933333333     0.076133333333     0.382866666667    -0.416747   
C7       C      0.647900000000     0.109600000000     0.420400000000    -0.422711   
C4       C      0.469800000000     0.052933333333     0.406300000000    -0.400003   
Al2      Al     0.500000000000     0.000000000000     0.333333333333     6.78372    
Al1      Al     0.421606666667     0.311183333333     0.354996666667     7.34021    
Al3      Al     0.333333333333     0.000000000000     0.333333333333     7.54699    
O4       O      0.458890000000     0.282963333333     0.372846666667    -1.74747    
O2       O      0.449980000000     0.323173333333     0.658813333333    -3.20286    
H2       H      0.437203666667     0.324144000000     0.637336666667     0.82159    
O7       O      0.395853333333     0.296310000000     0.386263333333    -1.78294    
O1       O      0.384296666667     0.005060000000     0.339580000000    -3.37586    
H1       H      0.392446000000     0.023720666667     0.334319000000     0.868369   
O5       O      0.556173333333     0.174203333333     0.448150000000    -1.72906    
O9       O      0.397046666667     0.217970000000     0.490906666667    -1.71641    
O3       O      0.513483333333     0.300406666667     0.362633333333    -1.69537    
O6       O      0.505963333333     0.192260000000     0.465033333333    -1.69562    
O10      O      0.336303333333     0.203656666667     0.479343333333    -1.88841    
O8       O      0.336403333333     0.312906666667     0.373190000000    -1.87255    
N4       N      0.651366666667     0.247600000000     0.435133333333    -0.0722474  
H4       H      0.632105666667     0.238438333333     0.439491333333     0.0932059  
N1       N      0.551466666667     0.253733333333     0.400000000000    -0.0762813  
H1A      H      0.566709000000     0.264608333333     0.391800666667     0.0723643  
N2       N      0.561966666667     0.230066666667     0.418966666667    -0.0300053  
N3       N      0.649500000000     0.268266666667     0.412466666667    -0.0286179  
C1       C      0.493966666667     0.282366666667     0.375233333333     1.29219    
C6       C      0.362066666667     0.297133333333     0.389133333333     1.38363    
C5       C      0.530933333333     0.193366666667     0.448266666667     1.27202    
C3       C      0.499533333333     0.237100000000     0.413133333333     0.372599   
H3       H      0.474593000000     0.234998000000     0.415340333333    -0.103971   
C10      C      0.363200000000     0.219700000000     0.475500000000     1.34365    
C8       C      0.376733333333     0.260700000000     0.437066666667     0.406036   
H8       H      0.402948000000     0.262279666667     0.442693666667    -0.11218    
C2       C      0.513900000000     0.258233333333     0.395400000000    -0.391746   
C9       C      0.354066666667     0.242800000000     0.450466666667    -0.430545   
C7       C      0.352100000000     0.276266666667     0.412933333333    -0.425149   
C4       C      0.530200000000     0.219600000000     0.427033333333    -0.398821   
Al1      Al     0.421606666667     0.188816666667     0.521663333333     7.33971    
O4       O      0.458890000000     0.217036666667     0.539513333333    -1.74735    
O2       O      0.449980000000     0.176826666667     0.492146666667    -3.20276    
H2       H      0.437203666667     0.175856000000     0.470670000000     0.821623   
O7       O      0.395853333333     0.203690000000     0.552930000000    -1.78276    
O1       O      0.384296666667     0.161606666667     0.506246666667    -3.39341    
H1       H      0.392446000000     0.142946000000     0.500985666667     0.876234   
O5       O      0.556173333333     0.325796666667     0.614816666667    -1.72952    
O9       O      0.397046666667     0.282030000000     0.657573333333    -1.71649    
O3       O      0.513483333333     0.199593333333     0.529300000000    -1.69518    
O6       O      0.505963333333     0.307740000000     0.631700000000    -1.69582    
O10      O      0.336303333333     0.296343333333     0.646010000000    -1.88864    
O8       O      0.336403333333     0.187093333333     0.539856666667    -1.87219    
N4       N      0.651366666667     0.252400000000     0.601800000000    -0.0722372  
H4       H      0.632105666667     0.261561666667     0.606158000000     0.0931925  
N1       N      0.551466666667     0.246266666667     0.566666666667    -0.0762945  
H1A      H      0.566709000000     0.235391666667     0.558467333333     0.0723977  
N2       N      0.561966666667     0.269933333333     0.585633333333    -0.030054   
N3       N      0.649500000000     0.231733333333     0.579133333333    -0.0285824  
C1       C      0.493966666667     0.217633333333     0.541900000000     1.29217    
C6       C      0.362066666667     0.202866666667     0.555800000000     1.38356    
C5       C      0.530933333333     0.306633333333     0.614933333333     1.27205    
C3       C      0.499533333333     0.262900000000     0.579800000000     0.372602   
H3       H      0.474593000000     0.265002000000     0.582007000000    -0.104047   
C10      C      0.363200000000     0.280300000000     0.642166666667     1.34372    
C8       C      0.376733333333     0.239300000000     0.603733333333     0.406023   
H8       H      0.402948000000     0.237720333333     0.609360333333    -0.112081   
C2       C      0.513900000000     0.241766666667     0.562066666667    -0.391724   
C9       C      0.354066666667     0.257200000000     0.617133333333    -0.430537   
C7       C      0.352100000000     0.223733333333     0.579600000000    -0.42499    
C4       C      0.530200000000     0.280400000000     0.593700000000    -0.398971   
Al1      Al     0.578393333333     0.022150000000     0.645003333333     7.03807    
O4       O      0.541110000000     0.050370000000     0.627153333333    -1.6899     
O2       O      0.550020000000     0.010160000000     0.341186666667    -3.0893     
H2       H      0.562796333333     0.009189333333     0.362663333333     0.783534   
O7       O      0.604146666667     0.037023333333     0.613736666667    -1.73022    
O1       O      0.615703333333     0.328273333333     0.660420000000    -3.39375    
H1       H      0.607554000000     0.309612666667     0.665681000000     0.877124   
O5       O      0.443826666667     0.159130000000     0.551850000000    -1.7291     
O9       O      0.602953333333     0.115363333333     0.509093333333    -1.7176     
O3       O      0.486516666667     0.032926666667     0.637366666667    -1.64102    
O6       O      0.494036666667     0.141073333333     0.534966666667    -1.69612    
O10      O      0.663696666667     0.129676666667     0.520656666667    -1.88882    
O8       O      0.663596666667     0.020426666667     0.626810000000    -1.81165    
N4       N      0.348633333333     0.085733333333     0.564866666667    -0.0729775  
H4       H      0.367894333333     0.094895000000     0.560508666667     0.091813   
N1       N      0.448533333333     0.079600000000     0.600000000000    -0.0787948  
H1A      H      0.433291000000     0.068725000000     0.608199333333     0.0698542  
N2       N      0.438033333333     0.103266666667     0.581033333333    -0.0311457  
N3       N      0.350500000000     0.065066666667     0.587533333333    -0.0330209  
C1       C      0.506033333333     0.050966666667     0.624766666667     1.2484     
C6       C      0.637933333333     0.036200000000     0.610866666667     1.33581    
C5       C      0.469066666667     0.139966666667     0.551733333333     1.27082    
C3       C      0.500466666667     0.096233333333     0.586866666667     0.363713   
H3       H      0.525407000000     0.098335333333     0.584659666667    -0.101835   
C10      C      0.636800000000     0.113633333333     0.524500000000     1.3422     
C8       C      0.623266666667     0.072633333333     0.562933333333     0.396952   
H8       H      0.597052000000     0.071053666667     0.557306333333    -0.112632   
C2       C      0.486100000000     0.075100000000     0.604600000000    -0.381736   
C9       C      0.645933333333     0.090533333333     0.549533333333    -0.430059   
C7       C      0.647900000000     0.057066666667     0.587066666667    -0.415657   
C4       C      0.469800000000     0.113733333333     0.572966666667    -0.397031   
Al2      Al     0.500000000000     0.166666666667     0.833333333333     7.12458    
Al1      Al     0.578393333333     0.144516666667     0.811670000000     7.33894    
Al3      Al     0.333333333333     0.166666666667     0.833333333333     7.92332    
O4       O      0.541110000000     0.116296666667     0.793820000000    -1.74845    
O2       O      0.550020000000     0.156506666667     0.841186666667    -3.20272    
H2       H      0.562796333333     0.157477333333     0.862663333333     0.821683   
O7       O      0.604146666667     0.129643333333     0.780403333333    -1.78284    
O1       O      0.615703333333     0.171726666667     0.827086666667    -3.39321    
H1       H      0.607554000000     0.190387333333     0.832347666667     0.87705    
O5       O      0.443826666667     0.007536666667     0.718516666667    -1.7735     
O9       O      0.602953333333     0.051303333333     0.675760000000    -1.65818    
O3       O      0.486516666667     0.133740000000     0.804033333333    -1.69575    
O6       O      0.494036666667     0.025593333333     0.701633333333    -1.65086    
O10      O      0.663696666667     0.036990000000     0.687323333333    -1.81987    
O8       O      0.663596666667     0.146240000000     0.793476666667    -1.87225    
N4       N      0.348633333333     0.080933333333     0.731533333333    -0.0757649  
H4       H      0.367894333333     0.071771666667     0.727175333333     0.0920515  
N1       N      0.448533333333     0.087066666667     0.766666666667    -0.0767503  
H1A      H      0.433291000000     0.097941666667     0.774866000000     0.0710144  
N2       N      0.438033333333     0.063400000000     0.747700000000    -0.0321662  
N3       N      0.350500000000     0.101600000000     0.754200000000    -0.0300135  
C1       C      0.506033333333     0.115700000000     0.791433333333     1.29153    
C6       C      0.637933333333     0.130466666667     0.777533333333     1.38178    
C5       C      0.469066666667     0.026700000000     0.718400000000     1.26121    
C3       C      0.500466666667     0.070433333333     0.753533333333     0.369775   
H3       H      0.525407000000     0.068331333333     0.751326333333    -0.105517   
C10      C      0.636800000000     0.053033333333     0.691166666667     1.29481    
C8       C      0.623266666667     0.094033333333     0.729600000000     0.395255   
H8       H      0.597052000000     0.095613000000     0.723973000000    -0.108238   
C2       C      0.486100000000     0.091566666667     0.771266666667    -0.39291    
C9       C      0.645933333333     0.076133333333     0.716200000000    -0.416758   
C7       C      0.647900000000     0.109600000000     0.753733333333    -0.422723   
C4       C      0.469800000000     0.052933333333     0.739633333333    -0.400013   
Al2      Al     0.500000000000     0.000000000000     0.666666666667     6.78366    
Al1      Al     0.421606666667     0.311183333333     0.688330000000     7.34016    
Al3      Al     0.333333333333     0.000000000000     0.666666666667     7.54693    
O4       O      0.458890000000     0.282963333333     0.706180000000    -1.74746    
O2       O      0.449980000000     0.323173333333     0.992146666667    -3.19747    
H2       H      0.437203666667     0.324144000000     0.970670000000     0.820573   
O7       O      0.395853333333     0.296310000000     0.719596666667    -1.78294    
O1       O      0.384296666667     0.005060000000     0.672913333333    -3.37584    
H1       H      0.392446000000     0.023720666667     0.667652333333     0.868357   
O5       O      0.556173333333     0.174203333333     0.781483333333    -1.72907    
O9       O      0.397046666667     0.217970000000     0.824240000000    -1.71642    
O3       O      0.513483333333     0.300406666667     0.695966666667    -1.69537    
O6       O      0.505963333333     0.192260000000     0.798366666667    -1.69563    
O10      O      0.336303333333     0.203656666667     0.812676666667    -1.88842    
O8       O      0.336403333333     0.312906666667     0.706523333333    -1.87255    
N4       N      0.651366666667     0.247600000000     0.768466666667    -0.0722491  
H4       H      0.632105666667     0.238438333333     0.772824666667     0.093197   
N1       N      0.551466666667     0.253733333333     0.733333333333    -0.0762832  
H1A      H      0.566709000000     0.264608333333     0.725134000000     0.072355   
N2       N      0.561966666667     0.230066666667     0.752300000000    -0.0300131  
N3       N      0.649500000000     0.268266666667     0.745800000000    -0.028626   
C1       C      0.493966666667     0.282366666667     0.708566666667     1.29218    
C6       C      0.362066666667     0.297133333333     0.722466666667     1.38362    
C5       C      0.530933333333     0.193366666667     0.781600000000     1.27202    
C3       C      0.499533333333     0.237100000000     0.746466666667     0.372595   
H3       H      0.474593000000     0.234998000000     0.748673666667    -0.103981   
C10      C      0.363200000000     0.219700000000     0.808833333333     1.34364    
C8       C      0.376733333333     0.260700000000     0.770400000000     0.406032   
H8       H      0.402948000000     0.262279666667     0.776027000000    -0.112188   
C2       C      0.513900000000     0.258233333333     0.728733333333    -0.391757   
C9       C      0.354066666667     0.242800000000     0.783800000000    -0.430556   
C7       C      0.352100000000     0.276266666667     0.746266666667    -0.425159   
C4       C      0.530200000000     0.219600000000     0.760366666667    -0.398834   
Al1      Al     0.421606666667     0.188816666667     0.854996666667     7.33967    
O4       O      0.458890000000     0.217036666667     0.872846666667    -1.74731    
O2       O      0.449980000000     0.176826666667     0.825480000000    -3.20276    
H2       H      0.437203666667     0.175856000000     0.804003333333     0.821613   
O7       O      0.395853333333     0.203690000000     0.886263333333    -1.78268    
O1       O      0.384296666667     0.161606666667     0.839580000000    -3.3934     
H1       H      0.392446000000     0.142946000000     0.834319000000     0.876223   
O5       O      0.556173333333     0.325796666667     0.948150000000    -1.72993    
O9       O      0.397046666667     0.282030000000     0.990906666667    -1.71363    
O3       O      0.513483333333     0.199593333333     0.862633333333    -1.69514    
O6       O      0.505963333333     0.307740000000     0.965033333333    -1.69343    
O10      O      0.336303333333     0.296343333333     0.979343333333    -1.88548    
O8       O      0.336403333333     0.187093333333     0.873190000000    -1.87213    
N4       N      0.651366666667     0.252400000000     0.935133333333    -0.0723676  
H4       H      0.632105666667     0.261561666667     0.939491333333     0.09334    
N1       N      0.551466666667     0.246266666667     0.900000000000    -0.0762932  
H1A      H      0.566709000000     0.235391666667     0.891800666667     0.0724422  
N2       N      0.561966666667     0.269933333333     0.918966666667    -0.0300163  
N3       N      0.649500000000     0.231733333333     0.912466666667    -0.0285462  
C1       C      0.493966666667     0.217633333333     0.875233333333     1.29216    
C6       C      0.362066666667     0.202866666667     0.889133333333     1.38352    
C5       C      0.530933333333     0.306633333333     0.948266666667     1.27163    
C3       C      0.499533333333     0.262900000000     0.913133333333     0.372482   
H3       H      0.474593000000     0.265002000000     0.915340333333    -0.103919   
C10      C      0.363200000000     0.280300000000     0.975500000000     1.34212    
C8       C      0.376733333333     0.239300000000     0.937066666667     0.405619   
H8       H      0.402948000000     0.237720333333     0.942693666667    -0.111734   
C2       C      0.513900000000     0.241766666667     0.895400000000    -0.391598   
C9       C      0.354066666667     0.257200000000     0.950466666667    -0.429724   
C7       C      0.352100000000     0.223733333333     0.912933333333    -0.424742   
C4       C      0.530200000000     0.280400000000     0.927033333333    -0.398681   
Al1      Al     0.578393333333     0.022150000000     0.978336666667     7.04273    
O4       O      0.541110000000     0.050370000000     0.960486666667    -1.68999    
O2       O      0.550020000000     0.010160000000     0.674520000000    -3.08928    
H2       H      0.562796333333     0.009189333333     0.695996666667     0.783522   
O7       O      0.604146666667     0.037023333333     0.947070000000    -1.73049    
O1       O      0.615703333333     0.328273333333     0.993753333333    -3.39146    
H1       H      0.607554000000     0.309612666667     0.999014333333     0.877148   
O5       O      0.443826666667     0.159130000000     0.885183333333    -1.72901    
O9       O      0.602953333333     0.115363333333     0.842426666667    -1.71759    
O3       O      0.486516666667     0.032926666667     0.970700000000    -1.63858    
O6       O      0.494036666667     0.141073333333     0.868300000000    -1.69609    
O10      O      0.663696666667     0.129676666667     0.853990000000    -1.88879    
O8       O      0.663596666667     0.020426666667     0.960143333333    -1.80899    
N4       N      0.348633333333     0.085733333333     0.898200000000    -0.0729683  
H4       H      0.367894333333     0.094895000000     0.893842000000     0.0918684  
N1       N      0.448533333333     0.079600000000     0.933333333333    -0.078863   
H1A      H      0.433291000000     0.068725000000     0.941532666667     0.0701143  
N2       N      0.438033333333     0.103266666667     0.914366666667    -0.0310625  
N3       N      0.350500000000     0.065066666667     0.920866666667    -0.0329177  
C1       C      0.506033333333     0.050966666667     0.958100000000     1.24796    
C6       C      0.637933333333     0.036200000000     0.944200000000     1.33529    
C5       C      0.469066666667     0.139966666667     0.885066666667     1.27082    
C3       C      0.500466666667     0.096233333333     0.920200000000     0.363613   
H3       H      0.525407000000     0.098335333333     0.917993000000    -0.101679   
C10      C      0.636800000000     0.113633333333     0.857833333333     1.34219    
C8       C      0.623266666667     0.072633333333     0.896266666667     0.39686    
H8       H      0.597052000000     0.071053666667     0.890639666667    -0.112565   
C2       C      0.486100000000     0.075100000000     0.937933333333    -0.381331   
C9       C      0.645933333333     0.090533333333     0.882866666667    -0.429972   
C7       C      0.647900000000     0.057066666667     0.920400000000    -0.415325   
C4       C      0.469800000000     0.113733333333     0.906300000000    -0.396895   
Al2      Al     0.500000000000     0.500000000000     0.166666666667     7.12435    
Al1      Al     0.578393333333     0.477850000000     0.145003333333     7.33941    
Al3      Al     0.333333333333     0.500000000000     0.166666666667     7.92362    
O4       O      0.541110000000     0.449630000000     0.127153333333    -1.74747    
O2       O      0.550020000000     0.489840000000     0.174520000000    -3.20263    
H2       H      0.562796333333     0.490810666667     0.195996666667     0.821445   
O7       O      0.604146666667     0.462976666667     0.113736666667    -1.78297    
O1       O      0.615703333333     0.505060000000     0.160420000000    -3.39357    
H1       H      0.607554000000     0.523720666667     0.165681000000     0.87694    
O5       O      0.443826666667     0.340870000000     0.051850000000    -1.72765    
O9       O      0.602953333333     0.384636666667     0.009093333333    -1.71792    
O3       O      0.486516666667     0.467073333333     0.137366666667    -1.69535    
O6       O      0.494036666667     0.358926666667     0.034966666667    -1.69405    
O10      O      0.663696666667     0.370323333333     0.020656666667    -1.88703    
O8       O      0.663596666667     0.479573333333     0.126810000000    -1.87256    
N4       N      0.348633333333     0.414266666667     0.064866666667    -0.0722827  
H4       H      0.367894333333     0.405105000000     0.060508666667     0.0930267  
N1       N      0.448533333333     0.420400000000     0.100000000000    -0.0763333  
H1A      H      0.433291000000     0.431275000000     0.108199333333     0.0722178  
N2       N      0.438033333333     0.396733333333     0.081033333333    -0.0302015  
N3       N      0.350500000000     0.434933333333     0.087533333333    -0.0287384  
C1       C      0.506033333333     0.449033333333     0.124766666667     1.29199    
C6       C      0.637933333333     0.463800000000     0.110866666667     1.38342    
C5       C      0.469066666667     0.360033333333     0.051733333333     1.27063    
C3       C      0.500466666667     0.403766666667     0.086866666667     0.372256   
H3       H      0.525407000000     0.401664666667     0.084659666667    -0.104089   
C10      C      0.636800000000     0.386366666667     0.024500000000     1.34313    
C8       C      0.623266666667     0.427366666667     0.062933333333     0.405959   
H8       H      0.597052000000     0.428946333333     0.057306333333    -0.112458   
C2       C      0.486100000000     0.424900000000     0.104600000000    -0.391887   
C9       C      0.645933333333     0.409466666667     0.049533333333    -0.430866   
C7       C      0.647900000000     0.442933333333     0.087066666667    -0.425428   
C4       C      0.469800000000     0.386266666667     0.072966666667    -0.398713   
Al2      Al     0.500000000000     0.333333333333     0.000000000000     7.11404    
Al1      Al     0.421606666667     0.644516666667     0.021663333333     7.32931    
Al3      Al     0.333333333333     0.333333333333     0.000000000000     7.91218    
O4       O      0.458890000000     0.616296666667     0.039513333333    -1.74584    
O2       O      0.449980000000     0.656506666667     0.325480000000    -3.20248    
H2       H      0.437203666667     0.657477333333     0.304003333333     0.821341   
O7       O      0.395853333333     0.629643333333     0.052930000000    -1.78103    
O1       O      0.384296666667     0.338393333333     0.006246666667    -3.38993    
H1       H      0.392446000000     0.357054000000     0.000985666667     0.875737   
O5       O      0.556173333333     0.507536666667     0.114816666667    -1.72959    
O9       O      0.397046666667     0.551303333333     0.157573333333    -1.71659    
O3       O      0.513483333333     0.633740000000     0.029300000000    -1.69355    
O6       O      0.505963333333     0.525593333333     0.131700000000    -1.69588    
O10      O      0.336303333333     0.536990000000     0.146010000000    -1.88868    
O8       O      0.336403333333     0.646240000000     0.039856666667    -1.87044    
N4       N      0.651366666667     0.580933333333     0.101800000000    -0.0723114  
H4       H      0.632105666667     0.571771666667     0.106158000000     0.0929258  
N1       N      0.551466666667     0.587066666667     0.066666666667    -0.0764083  
H1A      H      0.566709000000     0.597941666667     0.058467333333     0.0719702  
N2       N      0.561966666667     0.563400000000     0.085633333333    -0.0303045  
N3       N      0.649500000000     0.601600000000     0.079133333333    -0.0290063  
C1       C      0.493966666667     0.615700000000     0.041900000000     1.2905     
C6       C      0.362066666667     0.630466666667     0.055800000000     1.3818     
C5       C      0.530933333333     0.526700000000     0.114933333333     1.27186    
C3       C      0.499533333333     0.570433333333     0.079800000000     0.372236   
H3       H      0.474593000000     0.568331333333     0.082007000000    -0.104233   
C10      C      0.363200000000     0.553033333333     0.142166666667     1.34352    
C8       C      0.376733333333     0.594033333333     0.103733333333     0.405655   
H8       H      0.402948000000     0.595613000000     0.109360333333    -0.112316   
C2       C      0.513900000000     0.591566666667     0.062066666667    -0.391808   
C9       C      0.354066666667     0.576133333333     0.117133333333    -0.430834   
C7       C      0.352100000000     0.609600000000     0.079600000000    -0.42506    
C4       C      0.530200000000     0.552933333333     0.093700000000    -0.399192   
Al1      Al     0.421606666667     0.522150000000     0.188330000000     7.33945    
O4       O      0.458890000000     0.550370000000     0.206180000000    -1.74755    
O2       O      0.449980000000     0.510160000000     0.158813333333    -3.20264    
H2       H      0.437203666667     0.509189333333     0.137336666667     0.821411   
O7       O      0.395853333333     0.537023333333     0.219596666667    -1.78296    
O1       O      0.384296666667     0.494940000000     0.172913333333    -3.39362    
H1       H      0.392446000000     0.476279333333     0.167652333333     0.877024   
O5       O      0.556173333333     0.659130000000     0.281483333333    -1.72948    
O9       O      0.397046666667     0.615363333333     0.324240000000    -1.7165     
O3       O      0.513483333333     0.532926666667     0.195966666667    -1.69539    
O6       O      0.505963333333     0.641073333333     0.298366666667    -1.69579    
O10      O      0.336303333333     0.629676666667     0.312676666667    -1.88858    
O8       O      0.336403333333     0.520426666667     0.206523333333    -1.87254    
N4       N      0.651366666667     0.585733333333     0.268466666667    -0.072287   
H4       H      0.632105666667     0.594895000000     0.272824666667     0.0929598  
N1       N      0.551466666667     0.579600000000     0.233333333333    -0.0763295  
H1A      H      0.566709000000     0.568725000000     0.225134000000     0.0721329  
N2       N      0.561966666667     0.603266666667     0.252300000000    -0.0302483  
N3       N      0.649500000000     0.565066666667     0.245800000000    -0.0288097  
C1       C      0.493966666667     0.550966666667     0.208566666667     1.29202    
C6       C      0.362066666667     0.536200000000     0.222466666667     1.38345    
C5       C      0.530933333333     0.639966666667     0.281600000000     1.27179    
C3       C      0.499533333333     0.596233333333     0.246466666667     0.372509   
H3       H      0.474593000000     0.598335333333     0.248673666667    -0.104262   
C10      C      0.363200000000     0.613633333333     0.308833333333     1.34348    
C8       C      0.376733333333     0.572633333333     0.270400000000     0.405955   
H8       H      0.402948000000     0.571053666667     0.276027000000    -0.112368   
C2       C      0.513900000000     0.575100000000     0.228733333333    -0.392073   
C9       C      0.354066666667     0.590533333333     0.283800000000    -0.430867   
C7       C      0.352100000000     0.557066666667     0.246266666667    -0.425379   
C4       C      0.530200000000     0.613733333333     0.260366666667    -0.399222   
Al1      Al     0.578393333333     0.355483333333     0.311670000000     7.33996    
O4       O      0.541110000000     0.383703333333     0.293820000000    -1.74757    
O2       O      0.550020000000     0.343493333333     0.007853333333    -3.2025     
H2       H      0.562796333333     0.342522666667     0.029330000000     0.821363   
O7       O      0.604146666667     0.370356666667     0.280403333333    -1.78299    
O1       O      0.615703333333     0.661606666667     0.327086666667    -3.39335    
H1       H      0.607554000000     0.642946000000     0.332347666667     0.876868   
O5       O      0.443826666667     0.492463333333     0.218516666667    -1.7295     
O9       O      0.602953333333     0.448696666667     0.175760000000    -1.7165     
O3       O      0.486516666667     0.366260000000     0.304033333333    -1.69542    
O6       O      0.494036666667     0.474406666667     0.201633333333    -1.69581    
O10      O      0.663696666667     0.463010000000     0.187323333333    -1.8886     
O8       O      0.663596666667     0.353760000000     0.293476666667    -1.87258    
N4       N      0.348633333333     0.419066666667     0.231533333333    -0.0722515  
H4       H      0.367894333333     0.428228333333     0.227175333333     0.0930899  
N1       N      0.448533333333     0.412933333333     0.266666666667    -0.0763049  
H1A      H      0.433291000000     0.402058333333     0.274866000000     0.0722571  
N2       N      0.438033333333     0.436600000000     0.247700000000    -0.0301397  
N3       N      0.350500000000     0.398400000000     0.254200000000    -0.0286826  
C1       C      0.506033333333     0.384300000000     0.291433333333     1.29214    
C6       C      0.637933333333     0.369533333333     0.277533333333     1.38354    
C5       C      0.469066666667     0.473300000000     0.218400000000     1.27193    
C3       C      0.500466666667     0.429566666667     0.253533333333     0.372565   
H3       H      0.525407000000     0.431668666667     0.251326333333    -0.104183   
C10      C      0.636800000000     0.446966666667     0.191166666667     1.34356    
C8       C      0.623266666667     0.405966666667     0.229600000000     0.405992   
H8       H      0.597052000000     0.404387000000     0.223973000000    -0.112283   
C2       C      0.486100000000     0.408433333333     0.271266666667    -0.391946   
C9       C      0.645933333333     0.423866666667     0.216200000000    -0.430786   
C7       C      0.647900000000     0.390400000000     0.253733333333    -0.425312   
C4       C      0.469800000000     0.447066666667     0.239633333333    -0.399105   
Al2      Al     0.500000000000     0.500000000000     0.500000000000     7.12437    
Al1      Al     0.578393333333     0.477850000000     0.478336666667     7.33941    
Al3      Al     0.333333333333     0.500000000000     0.500000000000     7.92361    
O4       O      0.541110000000     0.449630000000     0.460486666667    -1.74747    
O2       O      0.550020000000     0.489840000000     0.507853333333    -3.20264    
H2       H      0.562796333333     0.490810666667     0.529330000000     0.821438   
O7       O      0.604146666667     0.462976666667     0.447070000000    -1.78292    
O1       O      0.615703333333     0.505060000000     0.493753333333    -3.39357    
H1       H      0.607554000000     0.523720666667     0.499014333333     0.876931   
O5       O      0.443826666667     0.340870000000     0.385183333333    -1.72957    
O9       O      0.602953333333     0.384636666667     0.342426666667    -1.71662    
O3       O      0.486516666667     0.467073333333     0.470700000000    -1.69534    
O6       O      0.494036666667     0.358926666667     0.368300000000    -1.69591    
O10      O      0.663696666667     0.370323333333     0.353990000000    -1.88871    
O8       O      0.663596666667     0.479573333333     0.460143333333    -1.87252    
N4       N      0.348633333333     0.414266666667     0.398200000000    -0.0722487  
H4       H      0.367894333333     0.405105000000     0.393842000000     0.0930849  
N1       N      0.448533333333     0.420400000000     0.433333333333    -0.0763069  
H1A      H      0.433291000000     0.431275000000     0.441532666667     0.0722393  
N2       N      0.438033333333     0.396733333333     0.414366666667    -0.0301219  
N3       N      0.350500000000     0.434933333333     0.420866666667    -0.0287069  
C1       C      0.506033333333     0.449033333333     0.458100000000     1.29205    
C6       C      0.637933333333     0.463800000000     0.444200000000     1.38343    
C5       C      0.469066666667     0.360033333333     0.385066666667     1.27206    
C3       C      0.500466666667     0.403766666667     0.420200000000     0.372568   
H3       H      0.525407000000     0.401664666667     0.417993000000    -0.104161   
C10      C      0.636800000000     0.386366666667     0.357833333333     1.34366    
C8       C      0.623266666667     0.427366666667     0.396266666667     0.405996   
H8       H      0.597052000000     0.428946333333     0.390639666667    -0.112333   
C2       C      0.486100000000     0.424900000000     0.437933333333    -0.391941   
C9       C      0.645933333333     0.409466666667     0.382866666667    -0.430831   
C7       C      0.647900000000     0.442933333333     0.420400000000    -0.425352   
C4       C      0.469800000000     0.386266666667     0.406300000000    -0.39909    
Al2      Al     0.500000000000     0.333333333333     0.333333333333     7.12502    
Al1      Al     0.421606666667     0.644516666667     0.354996666667     7.33896    
Al3      Al     0.333333333333     0.333333333333     0.333333333333     7.92429    
O4       O      0.458890000000     0.616296666667     0.372846666667    -1.74746    
O2       O      0.449980000000     0.656506666667     0.658813333333    -3.20246    
H2       H      0.437203666667     0.657477333333     0.637336666667     0.821328   
O7       O      0.395853333333     0.629643333333     0.386263333333    -1.78291    
O1       O      0.384296666667     0.338393333333     0.339580000000    -3.39386    
H1       H      0.392446000000     0.357054000000     0.334319000000     0.877096   
O5       O      0.556173333333     0.507536666667     0.448150000000    -1.72953    
O9       O      0.397046666667     0.551303333333     0.490906666667    -1.7166     
O3       O      0.513483333333     0.633740000000     0.362633333333    -1.69533    
O6       O      0.505963333333     0.525593333333     0.465033333333    -1.69587    
O10      O      0.336303333333     0.536990000000     0.479343333333    -1.88867    
O8       O      0.336403333333     0.646240000000     0.373190000000    -1.8725     
N4       N      0.651366666667     0.580933333333     0.435133333333    -0.0722851  
H4       H      0.632105666667     0.571771666667     0.439491333333     0.0929567  
N1       N      0.551466666667     0.587066666667     0.400000000000    -0.0763307  
H1A      H      0.566709000000     0.597941666667     0.391800666667     0.0721121  
N2       N      0.561966666667     0.563400000000     0.418966666667    -0.0302312  
N3       N      0.649500000000     0.601600000000     0.412466666667    -0.0288346  
C1       C      0.493966666667     0.615700000000     0.375233333333     1.29193    
C6       C      0.362066666667     0.630466666667     0.389133333333     1.38334    
C5       C      0.530933333333     0.526700000000     0.448266666667     1.27191    
C3       C      0.499533333333     0.570433333333     0.413133333333     0.372512   
H3       H      0.474593000000     0.568331333333     0.415340333333    -0.10424    
C10      C      0.363200000000     0.553033333333     0.475500000000     1.34357    
C8       C      0.376733333333     0.594033333333     0.437066666667     0.405958   
H8       H      0.402948000000     0.595613000000     0.442693666667    -0.112415   
C2       C      0.513900000000     0.591566666667     0.395400000000    -0.392073   
C9       C      0.354066666667     0.576133333333     0.450466666667    -0.430905   
C7       C      0.352100000000     0.609600000000     0.412933333333    -0.425421   
C4       C      0.530200000000     0.552933333333     0.427033333333    -0.399202   
Al1      Al     0.421606666667     0.522150000000     0.521663333333     7.33945    
O4       O      0.458890000000     0.550370000000     0.539513333333    -1.74756    
O2       O      0.449980000000     0.510160000000     0.492146666667    -3.20265    
H2       H      0.437203666667     0.509189333333     0.470670000000     0.821456   
O7       O      0.395853333333     0.537023333333     0.552930000000    -1.78297    
O1       O      0.384296666667     0.494940000000     0.506246666667    -3.39362    
H1       H      0.392446000000     0.476279333333     0.500985666667     0.877022   
O5       O      0.556173333333     0.659130000000     0.614816666667    -1.72948    
O9       O      0.397046666667     0.615363333333     0.657573333333    -1.7165     
O3       O      0.513483333333     0.532926666667     0.529300000000    -1.69541    
O6       O      0.505963333333     0.641073333333     0.631700000000    -1.69579    
O10      O      0.336303333333     0.629676666667     0.646010000000    -1.88857    
O8       O      0.336403333333     0.520426666667     0.539856666667    -1.87255    
N4       N      0.651366666667     0.585733333333     0.601800000000    -0.0722893  
H4       H      0.632105666667     0.594895000000     0.606158000000     0.0929498  
N1       N      0.551466666667     0.579600000000     0.566666666667    -0.0763311  
H1A      H      0.566709000000     0.568725000000     0.558467333333     0.0721199  
N2       N      0.561966666667     0.603266666667     0.585633333333    -0.0302583  
N3       N      0.649500000000     0.565066666667     0.579133333333    -0.0288195  
C1       C      0.493966666667     0.550966666667     0.541900000000     1.29202    
C6       C      0.362066666667     0.536200000000     0.555800000000     1.38344    
C5       C      0.530933333333     0.639966666667     0.614933333333     1.27178    
C3       C      0.499533333333     0.596233333333     0.579800000000     0.372505   
H3       H      0.474593000000     0.598335333333     0.582007000000    -0.104274   
C10      C      0.363200000000     0.613633333333     0.642166666667     1.34347    
C8       C      0.376733333333     0.572633333333     0.603733333333     0.405951   
H8       H      0.402948000000     0.571053666667     0.609360333333    -0.112378   
C2       C      0.513900000000     0.575100000000     0.562066666667    -0.392092   
C9       C      0.354066666667     0.590533333333     0.617133333333    -0.43088    
C7       C      0.352100000000     0.557066666667     0.579600000000    -0.425393   
C4       C      0.530200000000     0.613733333333     0.593700000000    -0.399235   
Al1      Al     0.578393333333     0.355483333333     0.645003333333     7.33991    
O4       O      0.541110000000     0.383703333333     0.627153333333    -1.74757    
O2       O      0.550020000000     0.343493333333     0.341186666667    -3.20284    
H2       H      0.562796333333     0.342522666667     0.362663333333     0.821566   
O7       O      0.604146666667     0.370356666667     0.613736666667    -1.78299    
O1       O      0.615703333333     0.661606666667     0.660420000000    -3.39333    
H1       H      0.607554000000     0.642946000000     0.665681000000     0.876858   
O5       O      0.443826666667     0.492463333333     0.551850000000    -1.72951    
O9       O      0.602953333333     0.448696666667     0.509093333333    -1.71651    
O3       O      0.486516666667     0.366260000000     0.637366666667    -1.69542    
O6       O      0.494036666667     0.474406666667     0.534966666667    -1.69582    
O10      O      0.663696666667     0.463010000000     0.520656666667    -1.88861    
O8       O      0.663596666667     0.353760000000     0.626810000000    -1.87258    
N4       N      0.348633333333     0.419066666667     0.564866666667    -0.0722531  
H4       H      0.367894333333     0.428228333333     0.560508666667     0.0930785  
N1       N      0.448533333333     0.412933333333     0.600000000000    -0.076307   
H1A      H      0.433291000000     0.402058333333     0.608199333333     0.0722464  
N2       N      0.438033333333     0.436600000000     0.581033333333    -0.0301484  
N3       N      0.350500000000     0.398400000000     0.587533333333    -0.0286923  
C1       C      0.506033333333     0.384300000000     0.624766666667     1.29213    
C6       C      0.637933333333     0.369533333333     0.610866666667     1.38353    
C5       C      0.469066666667     0.473300000000     0.551733333333     1.27193    
C3       C      0.500466666667     0.429566666667     0.586866666667     0.372561   
H3       H      0.525407000000     0.431668666667     0.584659666667    -0.104194   
C10      C      0.636800000000     0.446966666667     0.524500000000     1.34356    
C8       C      0.623266666667     0.405966666667     0.562933333333     0.405989   
H8       H      0.597052000000     0.404387000000     0.557306333333    -0.112297   
C2       C      0.486100000000     0.408433333333     0.604600000000    -0.39196    
C9       C      0.645933333333     0.423866666667     0.549533333333    -0.430805   
C7       C      0.647900000000     0.390400000000     0.587066666667    -0.425326   
C4       C      0.469800000000     0.447066666667     0.572966666667    -0.399121   
Al2      Al     0.500000000000     0.500000000000     0.833333333333     7.12436    
Al1      Al     0.578393333333     0.477850000000     0.811670000000     7.3394     
Al3      Al     0.333333333333     0.500000000000     0.833333333333     7.92357    
O4       O      0.541110000000     0.449630000000     0.793820000000    -1.74748    
O2       O      0.550020000000     0.489840000000     0.841186666667    -3.20265    
H2       H      0.562796333333     0.490810666667     0.862663333333     0.821488   
O7       O      0.604146666667     0.462976666667     0.780403333333    -1.78293    
O1       O      0.615703333333     0.505060000000     0.827086666667    -3.39355    
H1       H      0.607554000000     0.523720666667     0.832347666667     0.876929   
O5       O      0.443826666667     0.340870000000     0.718516666667    -1.72957    
O9       O      0.602953333333     0.384636666667     0.675760000000    -1.71662    
O3       O      0.486516666667     0.467073333333     0.804033333333    -1.69535    
O6       O      0.494036666667     0.358926666667     0.701633333333    -1.69591    
O10      O      0.663696666667     0.370323333333     0.687323333333    -1.88871    
O8       O      0.663596666667     0.479573333333     0.793476666667    -1.87252    
N4       N      0.348633333333     0.414266666667     0.731533333333    -0.0722506  
H4       H      0.367894333333     0.405105000000     0.727175333333     0.0930762  
N1       N      0.448533333333     0.420400000000     0.766666666667    -0.0763081  
H1A      H      0.433291000000     0.431275000000     0.774866000000     0.072229   
N2       N      0.438033333333     0.396733333333     0.747700000000    -0.0301296  
N3       N      0.350500000000     0.434933333333     0.754200000000    -0.0287153  
C1       C      0.506033333333     0.449033333333     0.791433333333     1.29204    
C6       C      0.637933333333     0.463800000000     0.777533333333     1.38342    
C5       C      0.469066666667     0.360033333333     0.718400000000     1.27204    
C3       C      0.500466666667     0.403766666667     0.753533333333     0.372564   
H3       H      0.525407000000     0.401664666667     0.751326333333    -0.104171   
C10      C      0.636800000000     0.386366666667     0.691166666667     1.34365    
C8       C      0.623266666667     0.427366666667     0.729600000000     0.405992   
H8       H      0.597052000000     0.428946333333     0.723973000000    -0.112343   
C2       C      0.486100000000     0.424900000000     0.771266666667    -0.391955   
C9       C      0.645933333333     0.409466666667     0.716200000000    -0.430842   
C7       C      0.647900000000     0.442933333333     0.753733333333    -0.425364   
C4       C      0.469800000000     0.386266666667     0.739633333333    -0.3991     
Al2      Al     0.500000000000     0.333333333333     0.666666666667     7.12496    
Al1      Al     0.421606666667     0.644516666667     0.688330000000     7.3389     
Al3      Al     0.333333333333     0.333333333333     0.666666666667     7.92424    
O4       O      0.458890000000     0.616296666667     0.706180000000    -1.74746    
O2       O      0.449980000000     0.656506666667     0.992146666667    -3.19707    
H2       H      0.437203666667     0.657477333333     0.970670000000     0.820311   
O7       O      0.395853333333     0.629643333333     0.719596666667    -1.78291    
O1       O      0.384296666667     0.338393333333     0.672913333333    -3.39384    
H1       H      0.392446000000     0.357054000000     0.667652333333     0.877085   
O5       O      0.556173333333     0.507536666667     0.781483333333    -1.72953    
O9       O      0.397046666667     0.551303333333     0.824240000000    -1.71661    
O3       O      0.513483333333     0.633740000000     0.695966666667    -1.69533    
O6       O      0.505963333333     0.525593333333     0.798366666667    -1.69588    
O10      O      0.336303333333     0.536990000000     0.812676666667    -1.88868    
O8       O      0.336403333333     0.646240000000     0.706523333333    -1.8725     
N4       N      0.651366666667     0.580933333333     0.768466666667    -0.0722868  
H4       H      0.632105666667     0.571771666667     0.772824666667     0.0929478  
N1       N      0.551466666667     0.587066666667     0.733333333333    -0.0763326  
H1A      H      0.566709000000     0.597941666667     0.725134000000     0.0721027  
N2       N      0.561966666667     0.563400000000     0.752300000000    -0.030239   
N3       N      0.649500000000     0.601600000000     0.745800000000    -0.0288427  
C1       C      0.493966666667     0.615700000000     0.708566666667     1.29192    
C6       C      0.362066666667     0.630466666667     0.722466666667     1.38333    
C5       C      0.530933333333     0.526700000000     0.781600000000     1.2719     
C3       C      0.499533333333     0.570433333333     0.746466666667     0.372508   
H3       H      0.474593000000     0.568331333333     0.748673666667    -0.10425    
C10      C      0.363200000000     0.553033333333     0.808833333333     1.34356    
C8       C      0.376733333333     0.594033333333     0.770400000000     0.405955   
H8       H      0.402948000000     0.595613000000     0.776027000000    -0.112424   
C2       C      0.513900000000     0.591566666667     0.728733333333    -0.392085   
C9       C      0.354066666667     0.576133333333     0.783800000000    -0.430916   
C7       C      0.352100000000     0.609600000000     0.746266666667    -0.425431   
C4       C      0.530200000000     0.552933333333     0.760366666667    -0.399215   
Al1      Al     0.421606666667     0.522150000000     0.854996666667     7.33941    
O4       O      0.458890000000     0.550370000000     0.872846666667    -1.74751    
O2       O      0.449980000000     0.510160000000     0.825480000000    -3.20265    
H2       H      0.437203666667     0.509189333333     0.804003333333     0.821447   
O7       O      0.395853333333     0.537023333333     0.886263333333    -1.78289    
O1       O      0.384296666667     0.494940000000     0.839580000000    -3.3936     
H1       H      0.392446000000     0.476279333333     0.834319000000     0.877012   
O5       O      0.556173333333     0.659130000000     0.948150000000    -1.72989    
O9       O      0.397046666667     0.615363333333     0.990906666667    -1.71363    
O3       O      0.513483333333     0.532926666667     0.862633333333    -1.69537    
O6       O      0.505963333333     0.641073333333     0.965033333333    -1.6934     
O10      O      0.336303333333     0.629676666667     0.979343333333    -1.88542    
O8       O      0.336403333333     0.520426666667     0.873190000000    -1.87248    
N4       N      0.651366666667     0.585733333333     0.935133333333    -0.0724197  
H4       H      0.632105666667     0.594895000000     0.939491333333     0.0930975  
N1       N      0.551466666667     0.579600000000     0.900000000000    -0.0763298  
H1A      H      0.566709000000     0.568725000000     0.891800666667     0.0721645  
N2       N      0.561966666667     0.603266666667     0.918966666667    -0.0302206  
N3       N      0.649500000000     0.565066666667     0.912466666667    -0.0287832  
C1       C      0.493966666667     0.550966666667     0.875233333333     1.29201    
C6       C      0.362066666667     0.536200000000     0.889133333333     1.3834     
C5       C      0.530933333333     0.639966666667     0.948266666667     1.27137    
C3       C      0.499533333333     0.596233333333     0.913133333333     0.372386   
H3       H      0.474593000000     0.598335333333     0.915340333333    -0.104146   
C10      C      0.363200000000     0.613633333333     0.975500000000     1.34187    
C8       C      0.376733333333     0.572633333333     0.937066666667     0.405548   
H8       H      0.402948000000     0.571053666667     0.942693666667    -0.112032   
C2       C      0.513900000000     0.575100000000     0.895400000000    -0.391966   
C9       C      0.354066666667     0.590533333333     0.950466666667    -0.430066   
C7       C      0.352100000000     0.557066666667     0.912933333333    -0.425144   
C4       C      0.530200000000     0.613733333333     0.927033333333    -0.398945   
Al1      Al     0.578393333333     0.355483333333     0.978336666667     7.34457    
O4       O      0.541110000000     0.383703333333     0.960486666667    -1.74766    
O2       O      0.550020000000     0.343493333333     0.674520000000    -3.20283    
H2       H      0.562796333333     0.342522666667     0.695996666667     0.821554   
O7       O      0.604146666667     0.370356666667     0.947070000000    -1.78325    
O1       O      0.615703333333     0.661606666667     0.993753333333    -3.39104    
H1       H      0.607554000000     0.642946000000     0.999014333333     0.876881   
O5       O      0.443826666667     0.492463333333     0.885183333333    -1.72942    
O9       O      0.602953333333     0.448696666667     0.842426666667    -1.7165     
O3       O      0.486516666667     0.366260000000     0.970700000000    -1.69297    
O6       O      0.494036666667     0.474406666667     0.868300000000    -1.69579    
O10      O      0.663696666667     0.463010000000     0.853990000000    -1.88858    
O8       O      0.663596666667     0.353760000000     0.960143333333    -1.8699     
N4       N      0.348633333333     0.419066666667     0.898200000000    -0.0722439  
H4       H      0.367894333333     0.428228333333     0.893842000000     0.093134   
N1       N      0.448533333333     0.412933333333     0.933333333333    -0.0763757  
H1A      H      0.433291000000     0.402058333333     0.941532666667     0.072507   
N2       N      0.438033333333     0.436600000000     0.914366666667    -0.0300651  
N3       N      0.350500000000     0.398400000000     0.920866666667    -0.0285891  
C1       C      0.506033333333     0.384300000000     0.958100000000     1.29169    
C6       C      0.637933333333     0.369533333333     0.944200000000     1.38301    
C5       C      0.469066666667     0.473300000000     0.885066666667     1.27193    
C3       C      0.500466666667     0.429566666667     0.920200000000     0.37246    
H3       H      0.525407000000     0.431668666667     0.917993000000    -0.104038   
C10      C      0.636800000000     0.446966666667     0.857833333333     1.34355    
C8       C      0.623266666667     0.405966666667     0.896266666667     0.405897   
H8       H      0.597052000000     0.404387000000     0.890639666667    -0.11223    
C2       C      0.486100000000     0.408433333333     0.937933333333    -0.391552   
C9       C      0.645933333333     0.423866666667     0.882866666667    -0.430717   
C7       C      0.647900000000     0.390400000000     0.920400000000    -0.424992   
C4       C      0.469800000000     0.447066666667     0.906300000000    -0.398984   
Al2      Al     0.500000000000     0.833333333333     0.166666666667     7.12358    
Al1      Al     0.578393333333     0.811183333333     0.145003333333     7.33896    
Al3      Al     0.333333333333     0.833333333333     0.166666666667     7.92335    
O4       O      0.541110000000     0.782963333333     0.127153333333    -1.74761    
O2       O      0.550020000000     0.823173333333     0.174520000000    -3.20238    
H2       H      0.562796333333     0.824144000000     0.195996666667     0.821304   
O7       O      0.604146666667     0.796310000000     0.113736666667    -1.78308    
O1       O      0.615703333333     0.838393333333     0.160420000000    -3.39367    
H1       H      0.607554000000     0.857054000000     0.165681000000     0.877841   
O5       O      0.443826666667     0.674203333333     0.051850000000    -1.7276     
O9       O      0.602953333333     0.717970000000     0.009093333333    -1.71788    
O3       O      0.486516666667     0.800406666667     0.137366666667    -1.69545    
O6       O      0.494036666667     0.692260000000     0.034966666667    -1.694      
O10      O      0.663696666667     0.703656666667     0.020656666667    -1.88695    
O8       O      0.663596666667     0.812906666667     0.126810000000    -1.87275    
N4       N      0.348633333333     0.747600000000     0.064866666667    -0.0723268  
H4       H      0.367894333333     0.738438333333     0.060508666667     0.0928241  
N1       N      0.448533333333     0.753733333333     0.100000000000    -0.0763699  
H1A      H      0.433291000000     0.764608333333     0.108199333333     0.0719878  
N2       N      0.438033333333     0.730066666667     0.081033333333    -0.0303857  
N3       N      0.350500000000     0.768266666667     0.087533333333    -0.0289278  
C1       C      0.506033333333     0.782366666667     0.124766666667     1.29181    
C6       C      0.637933333333     0.797133333333     0.110866666667     1.3833     
C5       C      0.469066666667     0.693366666667     0.051733333333     1.27036    
C3       C      0.500466666667     0.737100000000     0.086866666667     0.372158   
H3       H      0.525407000000     0.734998000000     0.084659666667    -0.104291   
C10      C      0.636800000000     0.719700000000     0.024500000000     1.34288    
C8       C      0.623266666667     0.760700000000     0.062933333333     0.405888   
H8       H      0.597052000000     0.762279666667     0.057306333333    -0.112662   
C2       C      0.486100000000     0.758233333333     0.104600000000    -0.392185   
C9       C      0.645933333333     0.742800000000     0.049533333333    -0.431123   
C7       C      0.647900000000     0.776266666667     0.087066666667    -0.425701   
C4       C      0.469800000000     0.719600000000     0.072966666667    -0.398946   
Al2      Al     0.500000000000     0.666666666667     0.000000000000     7.11279    
Al1      Al     0.421606666667     0.977850000000     0.021663333333     7.47539    
Al3      Al     0.333333333333     0.666666666667     0.000000000000     7.91086    
O4       O      0.458890000000     0.949630000000     0.039513333333    -1.75615    
O2       O      0.449980000000     0.989840000000     0.325480000000    -3.1381     
H2       H      0.437203666667     0.990810666667     0.304003333333     0.821849   
O7       O      0.395853333333     0.962976666667     0.052930000000    -1.78343    
O1       O      0.384296666667     0.671726666667     0.006246666667    -3.38951    
H1       H      0.392446000000     0.690387333333     0.000985666667     0.875491   
O5       O      0.556173333333     0.840870000000     0.114816666667    -1.72943    
O9       O      0.397046666667     0.884636666667     0.157573333333    -1.71437    
O3       O      0.513483333333     0.967073333333     0.029300000000    -1.61642    
O6       O      0.505963333333     0.858926666667     0.131700000000    -1.69483    
O10      O      0.336303333333     0.870323333333     0.146010000000    -1.88772    
O8       O      0.336403333333     0.979573333333     0.039856666667    -1.78355    
N4       N      0.651366666667     0.914266666667     0.101800000000    -0.0721317  
H4       H      0.632105666667     0.905105000000     0.106158000000     0.0950298  
N1       N      0.551466666667     0.920400000000     0.066666666667    -0.0784677  
H1A      H      0.566709000000     0.931275000000     0.058467333333     0.0779744  
N2       N      0.561966666667     0.896733333333     0.085633333333    -0.0290629  
N3       N      0.649500000000     0.934933333333     0.079133333333    -0.0268011  
C1       C      0.493966666667     0.949033333333     0.041900000000     1.27593    
C6       C      0.362066666667     0.963800000000     0.055800000000     1.36514    
C5       C      0.530933333333     0.860033333333     0.114933333333     1.27148    
C3       C      0.499533333333     0.903766666667     0.079800000000     0.369351   
H3       H      0.474593000000     0.901664666667     0.082007000000    -0.101638   
C10      C      0.363200000000     0.886366666667     0.142166666667     1.34312    
C8       C      0.376733333333     0.927366666667     0.103733333333     0.402333   
H8       H      0.402948000000     0.928946333333     0.109360333333    -0.106476   
C2       C      0.513900000000     0.924900000000     0.062066666667    -0.381224   
C9       C      0.354066666667     0.909466666667     0.117133333333    -0.426334   
C7       C      0.352100000000     0.942933333333     0.079600000000    -0.412815   
C4       C      0.530200000000     0.886266666667     0.093700000000    -0.396835   
Al1      Al     0.421606666667     0.855483333333     0.188330000000     7.33878    
O4       O      0.458890000000     0.883703333333     0.206180000000    -1.74534    
O2       O      0.449980000000     0.843493333333     0.158813333333    -3.20222    
H2       H      0.437203666667     0.842522666667     0.137336666667     0.821243   
O7       O      0.395853333333     0.870356666667     0.219596666667    -1.78194    
O1       O      0.384296666667     0.828273333333     0.172913333333    -3.39361    
H1       H      0.392446000000     0.809612666667     0.167652333333     0.876834   
O5       O      0.556173333333     0.992463333333     0.281483333333    -1.63792    
O9       O      0.397046666667     0.948696666667     0.324240000000    -1.72702    
O3       O      0.513483333333     0.866260000000     0.195966666667    -1.69424    
O6       O      0.505963333333     0.974406666667     0.298366666667    -1.60867    
O10      O      0.336303333333     0.963010000000     0.312676666667    -1.80706    
O8       O      0.336403333333     0.853760000000     0.206523333333    -1.87213    
N4       N      0.651366666667     0.919066666667     0.268466666667    -0.0738713  
H4       H      0.632105666667     0.928228333333     0.272824666667     0.0966981  
N1       N      0.551466666667     0.912933333333     0.233333333333    -0.07666    
H1A      H      0.566709000000     0.902058333333     0.225134000000     0.0741187  
N2       N      0.561966666667     0.936600000000     0.252300000000    -0.0294369  
N3       N      0.649500000000     0.898400000000     0.245800000000    -0.0273796  
C1       C      0.493966666667     0.884300000000     0.208566666667     1.29059    
C6       C      0.362066666667     0.869533333333     0.222466666667     1.38333    
C5       C      0.530933333333     0.973300000000     0.281600000000     1.22521    
C3       C      0.499533333333     0.929566666667     0.246466666667     0.361825   
H3       H      0.474593000000     0.931668666667     0.248673666667    -0.0965466  
C10      C      0.363200000000     0.946966666667     0.308833333333     1.32603    
C8       C      0.376733333333     0.905966666667     0.270400000000     0.403025   
H8       H      0.402948000000     0.904387000000     0.276027000000    -0.109887   
C2       C      0.513900000000     0.908433333333     0.228733333333    -0.385434   
C9       C      0.354066666667     0.923866666667     0.283800000000    -0.420973   
C7       C      0.352100000000     0.890400000000     0.246266666667    -0.422837   
C4       C      0.530200000000     0.947066666667     0.260366666667    -0.377387   
Al1      Al     0.578393333333     0.688816666667     0.311670000000     7.33871    
O4       O      0.541110000000     0.717036666667     0.293820000000    -1.74752    
O2       O      0.550020000000     0.676826666667     0.007853333333    -3.20209    
H2       H      0.562796333333     0.675856000000     0.029330000000     0.8211     
O7       O      0.604146666667     0.703690000000     0.280403333333    -1.78294    
O1       O      0.615703333333     0.994940000000     0.327086666667    -3.21747    
H1       H      0.607554000000     0.976279333333     0.332347666667     0.843438   
O5       O      0.443826666667     0.825796666667     0.218516666667    -1.72965    
O9       O      0.602953333333     0.782030000000     0.175760000000    -1.71663    
O3       O      0.486516666667     0.699593333333     0.304033333333    -1.69537    
O6       O      0.494036666667     0.807740000000     0.201633333333    -1.69591    
O10      O      0.663696666667     0.796343333333     0.187323333333    -1.88876    
O8       O      0.663596666667     0.687093333333     0.293476666667    -1.87251    
N4       N      0.348633333333     0.752400000000     0.231533333333    -0.0722861  
H4       H      0.367894333333     0.761561666667     0.227175333333     0.0928706  
N1       N      0.448533333333     0.746266666667     0.266666666667    -0.0763484  
H1A      H      0.433291000000     0.735391666667     0.274866000000     0.0720401  
N2       N      0.438033333333     0.769933333333     0.247700000000    -0.0303279  
N3       N      0.350500000000     0.731733333333     0.254200000000    -0.0288746  
C1       C      0.506033333333     0.717633333333     0.291433333333     1.29189    
C6       C      0.637933333333     0.702866666667     0.277533333333     1.38327    
C5       C      0.469066666667     0.806633333333     0.218400000000     1.27175    
C3       C      0.500466666667     0.762900000000     0.253533333333     0.372468   
H3       H      0.525407000000     0.765002000000     0.251326333333    -0.104377   
C10      C      0.636800000000     0.780300000000     0.191166666667     1.34344    
C8       C      0.623266666667     0.739300000000     0.229600000000     0.405917   
H8       H      0.597052000000     0.737720333333     0.223973000000    -0.112503   
C2       C      0.486100000000     0.741766666667     0.271266666667    -0.392205   
C9       C      0.645933333333     0.757200000000     0.216200000000    -0.431098   
C7       C      0.647900000000     0.723733333333     0.253733333333    -0.425553   
C4       C      0.469800000000     0.780400000000     0.239633333333    -0.399361   
Al2      Al     0.500000000000     0.833333333333     0.500000000000     7.12359    
Al1      Al     0.578393333333     0.811183333333     0.478336666667     7.33896    
Al3      Al     0.333333333333     0.833333333333     0.500000000000     7.92334    
O4       O      0.541110000000     0.782963333333     0.460486666667    -1.74761    
O2       O      0.550020000000     0.823173333333     0.507853333333    -3.20239    
H2       H      0.562796333333     0.824144000000     0.529330000000     0.821297   
O7       O      0.604146666667     0.796310000000     0.447070000000    -1.78304    
O1       O      0.615703333333     0.838393333333     0.493753333333    -3.39366    
H1       H      0.607554000000     0.857054000000     0.499014333333     0.877832   
O5       O      0.443826666667     0.674203333333     0.385183333333    -1.72952    
O9       O      0.602953333333     0.717970000000     0.342426666667    -1.71658    
O3       O      0.486516666667     0.800406666667     0.470700000000    -1.69544    
O6       O      0.494036666667     0.692260000000     0.368300000000    -1.69586    
O10      O      0.663696666667     0.703656666667     0.353990000000    -1.88863    
O8       O      0.663596666667     0.812906666667     0.460143333333    -1.87271    
N4       N      0.348633333333     0.747600000000     0.398200000000    -0.0722927  
H4       H      0.367894333333     0.738438333333     0.393842000000     0.0928823  
N1       N      0.448533333333     0.753733333333     0.433333333333    -0.0763434  
H1A      H      0.433291000000     0.764608333333     0.441532666667     0.0720093  
N2       N      0.438033333333     0.730066666667     0.414366666667    -0.0303062  
N3       N      0.350500000000     0.768266666667     0.420866666667    -0.0288963  
C1       C      0.506033333333     0.782366666667     0.458100000000     1.29187    
C6       C      0.637933333333     0.797133333333     0.444200000000     1.38331    
C5       C      0.469066666667     0.693366666667     0.385066666667     1.27179    
C3       C      0.500466666667     0.737100000000     0.420200000000     0.372471   
H3       H      0.525407000000     0.734998000000     0.417993000000    -0.104364   
C10      C      0.636800000000     0.719700000000     0.357833333333     1.3434     
C8       C      0.623266666667     0.760700000000     0.396266666667     0.405925   
H8       H      0.597052000000     0.762279666667     0.390639666667    -0.112537   
C2       C      0.486100000000     0.758233333333     0.437933333333    -0.392239   
C9       C      0.645933333333     0.742800000000     0.382866666667    -0.431089   
C7       C      0.647900000000     0.776266666667     0.420400000000    -0.425625   
C4       C      0.469800000000     0.719600000000     0.406300000000    -0.399323   
Al2      Al     0.500000000000     0.666666666667     0.333333333333     7.12377    
Al1      Al     0.421606666667     0.977850000000     0.354996666667     7.48503    
Al3      Al     0.333333333333     0.666666666667     0.333333333333     7.92299    
O4       O      0.458890000000     0.949630000000     0.372846666667    -1.75777    
O2       O      0.449980000000     0.989840000000     0.658813333333    -3.13808    
H2       H      0.437203666667     0.990810666667     0.637336666667     0.821836   
O7       O      0.395853333333     0.962976666667     0.386263333333    -1.7853     
O1       O      0.384296666667     0.671726666667     0.339580000000    -3.39344    
H1       H      0.392446000000     0.690387333333     0.334319000000     0.87685    
O5       O      0.556173333333     0.840870000000     0.448150000000    -1.72937    
O9       O      0.397046666667     0.884636666667     0.490906666667    -1.71438    
O3       O      0.513483333333     0.967073333333     0.362633333333    -1.61819    
O6       O      0.505963333333     0.858926666667     0.465033333333    -1.69482    
O10      O      0.336303333333     0.870323333333     0.479343333333    -1.88771    
O8       O      0.336403333333     0.979573333333     0.373190000000    -1.7856     
N4       N      0.651366666667     0.914266666667     0.435133333333    -0.0721054  
H4       H      0.632105666667     0.905105000000     0.439491333333     0.0950609  
N1       N      0.551466666667     0.920400000000     0.400000000000    -0.0783906  
H1A      H      0.566709000000     0.931275000000     0.391800666667     0.0781166  
N2       N      0.561966666667     0.896733333333     0.418966666667    -0.0289895  
N3       N      0.649500000000     0.934933333333     0.412466666667    -0.0266296  
C1       C      0.493966666667     0.949033333333     0.375233333333     1.27735    
C6       C      0.362066666667     0.963800000000     0.389133333333     1.36668    
C5       C      0.530933333333     0.860033333333     0.448266666667     1.27152    
C3       C      0.499533333333     0.903766666667     0.413133333333     0.369626   
H3       H      0.474593000000     0.901664666667     0.415340333333    -0.101645   
C10      C      0.363200000000     0.886366666667     0.475500000000     1.34316    
C8       C      0.376733333333     0.927366666667     0.437066666667     0.402635   
H8       H      0.402948000000     0.928946333333     0.442693666667    -0.106575   
C2       C      0.513900000000     0.924900000000     0.395400000000    -0.381487   
C9       C      0.354066666667     0.909466666667     0.450466666667    -0.426405   
C7       C      0.352100000000     0.942933333333     0.412933333333    -0.413175   
C4       C      0.530200000000     0.886266666667     0.427033333333    -0.396845   
Al1      Al     0.421606666667     0.855483333333     0.521663333333     7.33877    
O4       O      0.458890000000     0.883703333333     0.539513333333    -1.74535    
O2       O      0.449980000000     0.843493333333     0.492146666667    -3.20224    
H2       H      0.437203666667     0.842522666667     0.470670000000     0.821288   
O7       O      0.395853333333     0.870356666667     0.552930000000    -1.78195    
O1       O      0.384296666667     0.828273333333     0.506246666667    -3.3936     
H1       H      0.392446000000     0.809612666667     0.500985666667     0.876832   
O5       O      0.556173333333     0.992463333333     0.614816666667    -1.63792    
O9       O      0.397046666667     0.948696666667     0.657573333333    -1.72702    
O3       O      0.513483333333     0.866260000000     0.529300000000    -1.69425    
O6       O      0.505963333333     0.974406666667     0.631700000000    -1.60867    
O10      O      0.336303333333     0.963010000000     0.646010000000    -1.80706    
O8       O      0.336403333333     0.853760000000     0.539856666667    -1.87214    
N4       N      0.651366666667     0.919066666667     0.601800000000    -0.0738736  
H4       H      0.632105666667     0.928228333333     0.606158000000     0.0966883  
N1       N      0.551466666667     0.912933333333     0.566666666667    -0.0766616  
H1A      H      0.566709000000     0.902058333333     0.558467333333     0.0741058  
N2       N      0.561966666667     0.936600000000     0.585633333333    -0.0294468  
N3       N      0.649500000000     0.898400000000     0.579133333333    -0.0273893  
C1       C      0.493966666667     0.884300000000     0.541900000000     1.29059    
C6       C      0.362066666667     0.869533333333     0.555800000000     1.38332    
C5       C      0.530933333333     0.973300000000     0.614933333333     1.2252     
C3       C      0.499533333333     0.929566666667     0.579800000000     0.361821   
H3       H      0.474593000000     0.931668666667     0.582007000000    -0.0965584  
C10      C      0.363200000000     0.946966666667     0.642166666667     1.32601    
C8       C      0.376733333333     0.905966666667     0.603733333333     0.403021   
H8       H      0.402948000000     0.904387000000     0.609360333333    -0.109897   
C2       C      0.513900000000     0.908433333333     0.562066666667    -0.385453   
C9       C      0.354066666667     0.923866666667     0.617133333333    -0.420985   
C7       C      0.352100000000     0.890400000000     0.579600000000    -0.422851   
C4       C      0.530200000000     0.947066666667     0.593700000000    -0.377401   
Al1      Al     0.578393333333     0.688816666667     0.645003333333     7.33866    
O4       O      0.541110000000     0.717036666667     0.627153333333    -1.74752    
O2       O      0.550020000000     0.676826666667     0.341186666667    -3.20244    
H2       H      0.562796333333     0.675856000000     0.362663333333     0.821303   
O7       O      0.604146666667     0.703690000000     0.613736666667    -1.78294    
O1       O      0.615703333333     0.994940000000     0.660420000000    -3.21745    
H1       H      0.607554000000     0.976279333333     0.665681000000     0.843427   
O5       O      0.443826666667     0.825796666667     0.551850000000    -1.72966    
O9       O      0.602953333333     0.782030000000     0.509093333333    -1.71665    
O3       O      0.486516666667     0.699593333333     0.637366666667    -1.69537    
O6       O      0.494036666667     0.807740000000     0.534966666667    -1.69592    
O10      O      0.663696666667     0.796343333333     0.520656666667    -1.88877    
O8       O      0.663596666667     0.687093333333     0.626810000000    -1.87251    
N4       N      0.348633333333     0.752400000000     0.564866666667    -0.0722877  
H4       H      0.367894333333     0.761561666667     0.560508666667     0.0928591  
N1       N      0.448533333333     0.746266666667     0.600000000000    -0.0763505  
H1A      H      0.433291000000     0.735391666667     0.608199333333     0.0720294  
N2       N      0.438033333333     0.769933333333     0.581033333333    -0.0303366  
N3       N      0.350500000000     0.731733333333     0.587533333333    -0.0288843  
C1       C      0.506033333333     0.717633333333     0.624766666667     1.29187    
C6       C      0.637933333333     0.702866666667     0.610866666667     1.38325    
C5       C      0.469066666667     0.806633333333     0.551733333333     1.27174    
C3       C      0.500466666667     0.762900000000     0.586866666667     0.372464   
H3       H      0.525407000000     0.765002000000     0.584659666667    -0.104388   
C10      C      0.636800000000     0.780300000000     0.524500000000     1.34344    
C8       C      0.623266666667     0.739300000000     0.562933333333     0.405914   
H8       H      0.597052000000     0.737720333333     0.557306333333    -0.112517   
C2       C      0.486100000000     0.741766666667     0.604600000000    -0.392219   
C9       C      0.645933333333     0.757200000000     0.549533333333    -0.431117   
C7       C      0.647900000000     0.723733333333     0.587066666667    -0.425567   
C4       C      0.469800000000     0.780400000000     0.572966666667    -0.399376   
Al2      Al     0.500000000000     0.833333333333     0.833333333333     7.12358    
Al1      Al     0.578393333333     0.811183333333     0.811670000000     7.33894    
Al3      Al     0.333333333333     0.833333333333     0.833333333333     7.9233     
O4       O      0.541110000000     0.782963333333     0.793820000000    -1.74762    
O2       O      0.550020000000     0.823173333333     0.841186666667    -3.2024     
H2       H      0.562796333333     0.824144000000     0.862663333333     0.821348   
O7       O      0.604146666667     0.796310000000     0.780403333333    -1.78305    
O1       O      0.615703333333     0.838393333333     0.827086666667    -3.39365    
H1       H      0.607554000000     0.857054000000     0.832347666667     0.877831   
O5       O      0.443826666667     0.674203333333     0.718516666667    -1.72952    
O9       O      0.602953333333     0.717970000000     0.675760000000    -1.71658    
O3       O      0.486516666667     0.800406666667     0.804033333333    -1.69545    
O6       O      0.494036666667     0.692260000000     0.701633333333    -1.69586    
O10      O      0.663696666667     0.703656666667     0.687323333333    -1.88862    
O8       O      0.663596666667     0.812906666667     0.793476666667    -1.87271    
N4       N      0.348633333333     0.747600000000     0.731533333333    -0.0722946  
H4       H      0.367894333333     0.738438333333     0.727175333333     0.0928736  
N1       N      0.448533333333     0.753733333333     0.766666666667    -0.0763446  
H1A      H      0.433291000000     0.764608333333     0.774866000000     0.071999   
N2       N      0.438033333333     0.730066666667     0.747700000000    -0.0303139  
N3       N      0.350500000000     0.768266666667     0.754200000000    -0.0289047  
C1       C      0.506033333333     0.782366666667     0.791433333333     1.29186    
C6       C      0.637933333333     0.797133333333     0.777533333333     1.3833     
C5       C      0.469066666667     0.693366666667     0.718400000000     1.27178    
C3       C      0.500466666667     0.737100000000     0.753533333333     0.372467   
H3       H      0.525407000000     0.734998000000     0.751326333333    -0.104374   
C10      C      0.636800000000     0.719700000000     0.691166666667     1.34339    
C8       C      0.623266666667     0.760700000000     0.729600000000     0.405921   
H8       H      0.597052000000     0.762279666667     0.723973000000    -0.112546   
C2       C      0.486100000000     0.758233333333     0.771266666667    -0.392253   
C9       C      0.645933333333     0.742800000000     0.716200000000    -0.4311     
C7       C      0.647900000000     0.776266666667     0.753733333333    -0.425637   
C4       C      0.469800000000     0.719600000000     0.739633333333    -0.399333   
Al2      Al     0.500000000000     0.666666666667     0.666666666667     7.12372    
Al1      Al     0.421606666667     0.977850000000     0.688330000000     7.48498    
Al3      Al     0.333333333333     0.666666666667     0.666666666667     7.92293    
O4       O      0.458890000000     0.949630000000     0.706180000000    -1.75777    
O2       O      0.449980000000     0.989840000000     0.992146666667    -3.13271    
H2       H      0.437203666667     0.990810666667     0.970670000000     0.820822   
O7       O      0.395853333333     0.962976666667     0.719596666667    -1.7853     
O1       O      0.384296666667     0.671726666667     0.672913333333    -3.39342    
H1       H      0.392446000000     0.690387333333     0.667652333333     0.876839   
O5       O      0.556173333333     0.840870000000     0.781483333333    -1.72938    
O9       O      0.397046666667     0.884636666667     0.824240000000    -1.71439    
O3       O      0.513483333333     0.967073333333     0.695966666667    -1.61818    
O6       O      0.505963333333     0.858926666667     0.798366666667    -1.69483    
O10      O      0.336303333333     0.870323333333     0.812676666667    -1.88771    
O8       O      0.336403333333     0.979573333333     0.706523333333    -1.78559    
N4       N      0.651366666667     0.914266666667     0.768466666667    -0.0721071  
H4       H      0.632105666667     0.905105000000     0.772824666667     0.0950519  
N1       N      0.551466666667     0.920400000000     0.733333333333    -0.0783926  
H1A      H      0.566709000000     0.931275000000     0.725134000000     0.0781072  
N2       N      0.561966666667     0.896733333333     0.752300000000    -0.0289973  
N3       N      0.649500000000     0.934933333333     0.745800000000    -0.0266378  
C1       C      0.493966666667     0.949033333333     0.708566666667     1.27734    
C6       C      0.362066666667     0.963800000000     0.722466666667     1.36667    
C5       C      0.530933333333     0.860033333333     0.781600000000     1.27152    
C3       C      0.499533333333     0.903766666667     0.746466666667     0.369622   
H3       H      0.474593000000     0.901664666667     0.748673666667    -0.101654   
C10      C      0.363200000000     0.886366666667     0.808833333333     1.34315    
C8       C      0.376733333333     0.927366666667     0.770400000000     0.402632   
H8       H      0.402948000000     0.928946333333     0.776027000000    -0.106583   
C2       C      0.513900000000     0.924900000000     0.728733333333    -0.381499   
C9       C      0.354066666667     0.909466666667     0.783800000000    -0.426416   
C7       C      0.352100000000     0.942933333333     0.746266666667    -0.413184   
C4       C      0.530200000000     0.886266666667     0.760366666667    -0.396858   
Al1      Al     0.421606666667     0.855483333333     0.854996666667     7.33874    
O4       O      0.458890000000     0.883703333333     0.872846666667    -1.7453     
O2       O      0.449980000000     0.843493333333     0.825480000000    -3.20224    
H2       H      0.437203666667     0.842522666667     0.804003333333     0.821278   
O7       O      0.395853333333     0.870356666667     0.886263333333    -1.78187    
O1       O      0.384296666667     0.828273333333     0.839580000000    -3.39358    
H1       H      0.392446000000     0.809612666667     0.834319000000     0.876822   
O5       O      0.556173333333     0.992463333333     0.948150000000    -1.63834    
O9       O      0.397046666667     0.948696666667     0.990906666667    -1.72416    
O3       O      0.513483333333     0.866260000000     0.862633333333    -1.69422    
O6       O      0.505963333333     0.974406666667     0.965033333333    -1.60629    
O10      O      0.336303333333     0.963010000000     0.979343333333    -1.80392    
O8       O      0.336403333333     0.853760000000     0.873190000000    -1.87208    
N4       N      0.651366666667     0.919066666667     0.935133333333    -0.0740035  
H4       H      0.632105666667     0.928228333333     0.939491333333     0.0968354  
N1       N      0.551466666667     0.912933333333     0.900000000000    -0.0766602  
H1A      H      0.566709000000     0.902058333333     0.891800666667     0.0741502  
N2       N      0.561966666667     0.936600000000     0.918966666667    -0.0294091  
N3       N      0.649500000000     0.898400000000     0.912466666667    -0.0273531  
C1       C      0.493966666667     0.884300000000     0.875233333333     1.29058    
C6       C      0.362066666667     0.869533333333     0.889133333333     1.38328    
C5       C      0.530933333333     0.973300000000     0.948266666667     1.22479    
C3       C      0.499533333333     0.929566666667     0.913133333333     0.361703   
H3       H      0.474593000000     0.931668666667     0.915340333333    -0.096431   
C10      C      0.363200000000     0.946966666667     0.975500000000     1.32442    
C8       C      0.376733333333     0.905966666667     0.937066666667     0.402619   
H8       H      0.402948000000     0.904387000000     0.942693666667    -0.109551   
C2       C      0.513900000000     0.908433333333     0.895400000000    -0.385327   
C9       C      0.354066666667     0.923866666667     0.950466666667    -0.420174   
C7       C      0.352100000000     0.890400000000     0.912933333333    -0.422603   
C4       C      0.530200000000     0.947066666667     0.927033333333    -0.377113   
Al1      Al     0.578393333333     0.688816666667     0.978336666667     7.34332    
O4       O      0.541110000000     0.717036666667     0.960486666667    -1.74761    
O2       O      0.550020000000     0.676826666667     0.674520000000    -3.20242    
H2       H      0.562796333333     0.675856000000     0.695996666667     0.821292   
O7       O      0.604146666667     0.703690000000     0.947070000000    -1.7832     
O1       O      0.615703333333     0.994940000000     0.993753333333    -3.21518    
H1       H      0.607554000000     0.976279333333     0.999014333333     0.843454   
O5       O      0.443826666667     0.825796666667     0.885183333333    -1.72956    
O9       O      0.602953333333     0.782030000000     0.842426666667    -1.71664    
O3       O      0.486516666667     0.699593333333     0.970700000000    -1.69292    
O6       O      0.494036666667     0.807740000000     0.868300000000    -1.69589    
O10      O      0.663696666667     0.796343333333     0.853990000000    -1.88874    
O8       O      0.663596666667     0.687093333333     0.960143333333    -1.86984    
N4       N      0.348633333333     0.752400000000     0.898200000000    -0.0722785  
H4       H      0.367894333333     0.761561666667     0.893842000000     0.0929147  
N1       N      0.448533333333     0.746266666667     0.933333333333    -0.0764192  
H1A      H      0.433291000000     0.735391666667     0.941532666667     0.0722901  
N2       N      0.438033333333     0.769933333333     0.914366666667    -0.0302533  
N3       N      0.350500000000     0.731733333333     0.920866666667    -0.0287811  
C1       C      0.506033333333     0.717633333333     0.958100000000     1.29143    
C6       C      0.637933333333     0.702866666667     0.944200000000     1.38273    
C5       C      0.469066666667     0.806633333333     0.885066666667     1.27174    
C3       C      0.500466666667     0.762900000000     0.920200000000     0.372362   
H3       H      0.525407000000     0.765002000000     0.917993000000    -0.104232   
C10      C      0.636800000000     0.780300000000     0.857833333333     1.34343    
C8       C      0.623266666667     0.739300000000     0.896266666667     0.405822   
H8       H      0.597052000000     0.737720333333     0.890639666667    -0.112449   
C2       C      0.486100000000     0.741766666667     0.937933333333    -0.391812   
C9       C      0.645933333333     0.757200000000     0.882866666667    -0.431029   
C7       C      0.647900000000     0.723733333333     0.920400000000    -0.425232   
C4       C      0.469800000000     0.780400000000     0.906300000000    -0.399239   
Al2      Al     0.833333333333     0.166666666667     0.166666666667     7.12334    
Al1      Al     0.911726666667     0.144516666667     0.145003333333     7.33029    
Al3      Al     0.666666666667     0.166666666667     0.166666666667     7.92308    
O4       O      0.874443333333     0.116296666667     0.127153333333    -1.74684    
O2       O      0.883353333333     0.156506666667     0.174520000000    -3.20097    
H2       H      0.896129666667     0.157477333333     0.195996666667     0.821894   
O7       O      0.937480000000     0.129643333333     0.113736666667    -1.77774    
O1       O      0.949036666667     0.171726666667     0.160420000000    -3.37433    
H1       H      0.940887333333     0.190387333333     0.165681000000     0.874725   
O5       O      0.777160000000     0.007536666667     0.051850000000    -1.77146    
O9       O      0.936286666667     0.051303333333     0.009093333333    -1.65451    
O3       O      0.819850000000     0.133740000000     0.137366666667    -1.69532    
O6       O      0.827370000000     0.025593333333     0.034966666667    -1.64869    
O10      O      0.997030000000     0.036990000000     0.020656666667    -1.79845    
O8       O      0.996930000000     0.146240000000     0.126810000000    -1.85276    
N4       N      0.681966666667     0.080933333333     0.064866666667    -0.0758072  
H4       H      0.701227666667     0.071771666667     0.060508666667     0.091966   
N1       N      0.781866666667     0.087066666667     0.100000000000    -0.0768297  
H1A      H      0.766624333333     0.097941666667     0.108199333333     0.0709927  
N2       N      0.771366666667     0.063400000000     0.081033333333    -0.0322825  
N3       N      0.683833333333     0.101600000000     0.087533333333    -0.0300737  
C1       C      0.839366666667     0.115700000000     0.124766666667     1.29078    
C6       C      0.971266666667     0.130466666667     0.110866666667     1.37248    
C5       C      0.802400000000     0.026700000000     0.051733333333     1.25969    
C3       C      0.833800000000     0.070433333333     0.086866666667     0.369245   
H3       H      0.858740333333     0.068331333333     0.084659666667    -0.105136   
C10      C      0.970133333333     0.053033333333     0.024500000000     1.28488    
C8       C      0.956600000000     0.094033333333     0.062933333333     0.38498    
H8       H      0.930385333333     0.095613000000     0.057306333333    -0.104233   
C2       C      0.819433333333     0.091566666667     0.104600000000    -0.392551   
C9       C      0.979266666667     0.076133333333     0.049533333333    -0.403082   
C7       C      0.981233333333     0.109600000000     0.087066666667    -0.409221   
C4       C      0.803133333333     0.052933333333     0.072966666667    -0.399451   
Al2      Al     0.833333333333     0.000000000000     0.000000000000     6.77167    
Al1      Al     0.754940000000     0.311183333333     0.021663333333     7.33019    
Al3      Al     0.666666666667     0.000000000000     0.000000000000     7.53466    
O4       O      0.792223333333     0.282963333333     0.039513333333    -1.74571    
O2       O      0.783313333333     0.323173333333     0.325480000000    -3.20256    
H2       H      0.770537000000     0.324144000000     0.304003333333     0.821501   
O7       O      0.729186666667     0.296310000000     0.052930000000    -1.78101    
O1       O      0.717630000000     0.005060000000     0.006246666667    -3.37183    
H1       H      0.725779333333     0.023720666667     0.000985666667     0.866958   
O5       O      0.889506666667     0.174203333333     0.114816666667    -1.72726    
O9       O      0.730380000000     0.217970000000     0.157573333333    -1.71636    
O3       O      0.846816666667     0.300406666667     0.029300000000    -1.69301    
O6       O      0.839296666667     0.192260000000     0.131700000000    -1.6951     
O10      O      0.669636666667     0.203656666667     0.146010000000    -1.8884     
O8       O      0.669736666667     0.312906666667     0.039856666667    -1.87048    
N4       N      0.984700000000     0.247600000000     0.101800000000    -0.0666126  
H4       H      0.965439000000     0.238438333333     0.106158000000     0.0941312  
N1       N      0.884800000000     0.253733333333     0.066666666667    -0.0764285  
H1A      H      0.900042333333     0.264608333333     0.058467333333     0.0731444  
N2       N      0.895300000000     0.230066666667     0.085633333333    -0.0293608  
N3       N      0.982833333333     0.268266666667     0.079133333333    -0.0225358  
C1       C      0.827300000000     0.282366666667     0.041900000000     1.29059    
C6       C      0.695400000000     0.297133333333     0.055800000000     1.38201    
C5       C      0.864266666667     0.193366666667     0.114933333333     1.27145    
C3       C      0.832866666667     0.237100000000     0.079800000000     0.372035   
H3       H      0.807926333333     0.234998000000     0.082007000000    -0.10383    
C10      C      0.696533333333     0.219700000000     0.142166666667     1.34353    
C8       C      0.710066666667     0.260700000000     0.103733333333     0.405685   
H8       H      0.736281333333     0.262279666667     0.109360333333    -0.112068   
C2       C      0.847233333333     0.258233333333     0.062066666667    -0.390981   
C9       C      0.687400000000     0.242800000000     0.117133333333    -0.430504   
C7       C      0.685433333333     0.276266666667     0.079600000000    -0.424813   
C4       C      0.863533333333     0.219600000000     0.093700000000    -0.398206   
Al1      Al     0.754940000000     0.188816666667     0.188330000000     7.33932    
O4       O      0.792223333333     0.217036666667     0.206180000000    -1.7472     
O2       O      0.783313333333     0.176826666667     0.158813333333    -3.20243    
H2       H      0.770537000000     0.175856000000     0.137336666667     0.821476   
O7       O      0.729186666667     0.203690000000     0.219596666667    -1.78269    
O1       O      0.717630000000     0.161606666667     0.172913333333    -3.39331    
H1       H      0.725779333333     0.142946000000     0.167652333333     0.876179   
O5       O      0.889506666667     0.325796666667     0.281483333333    -1.72766    
O9       O      0.730380000000     0.282030000000     0.324240000000    -1.71644    
O3       O      0.846816666667     0.199593333333     0.195966666667    -1.69458    
O6       O      0.839296666667     0.307740000000     0.298366666667    -1.6953     
O10      O      0.669636666667     0.296343333333     0.312676666667    -1.88862    
O8       O      0.669736666667     0.187093333333     0.206523333333    -1.87217    
N4       N      0.984700000000     0.252400000000     0.268466666667    -0.0665728  
H4       H      0.965439000000     0.261561666667     0.272824666667     0.0941591  
N1       N      0.884800000000     0.246266666667     0.233333333333    -0.0763627  
H1A      H      0.900042333333     0.235391666667     0.225134000000     0.073332   
N2       N      0.895300000000     0.269933333333     0.252300000000    -0.0293263  
N3       N      0.982833333333     0.231733333333     0.245800000000    -0.0223188  
C1       C      0.827300000000     0.217633333333     0.208566666667     1.292      
C6       C      0.695400000000     0.202866666667     0.222466666667     1.38349    
C5       C      0.864266666667     0.306633333333     0.281600000000     1.27154    
C3       C      0.832866666667     0.262900000000     0.246466666667     0.372317   
H3       H      0.807926333333     0.265002000000     0.248673666667    -0.103901   
C10      C      0.696533333333     0.280300000000     0.308833333333     1.34366    
C8       C      0.710066666667     0.239300000000     0.270400000000     0.405979   
H8       H      0.736281333333     0.237720333333     0.276027000000    -0.112059   
C2       C      0.847233333333     0.241766666667     0.228733333333    -0.391206   
C9       C      0.687400000000     0.257200000000     0.283800000000    -0.430554   
C7       C      0.685433333333     0.223733333333     0.246266666667    -0.425002   
C4       C      0.863533333333     0.280400000000     0.260366666667    -0.398352   
Al1      Al     0.911726666667     0.022150000000     0.311670000000     7.02959    
O4       O      0.874443333333     0.050370000000     0.293820000000    -1.68831    
O2       O      0.883353333333     0.010160000000     0.007853333333    -3.08726    
H2       H      0.896129666667     0.009189333333     0.029330000000     0.7836     
O7       O      0.937480000000     0.037023333333     0.280403333333    -1.72511    
O1       O      0.949036666667     0.328273333333     0.327086666667    -3.37486    
H1       H      0.940887333333     0.309612666667     0.332347666667     0.874798   
O5       O      0.777160000000     0.159130000000     0.218516666667    -1.72898    
O9       O      0.936286666667     0.115363333333     0.175760000000    -1.71259    
O3       O      0.819850000000     0.032926666667     0.304033333333    -1.64061    
O6       O      0.827370000000     0.141073333333     0.201633333333    -1.69578    
O10      O      0.997030000000     0.129676666667     0.187323333333    -1.869      
O8       O      0.996930000000     0.020426666667     0.293476666667    -1.79217    
N4       N      0.681966666667     0.085733333333     0.231533333333    -0.0729864  
H4       H      0.701227666667     0.094895000000     0.227175333333     0.0917882  
N1       N      0.781866666667     0.079600000000     0.266666666667    -0.0788462  
H1A      H      0.766624333333     0.068725000000     0.274866000000     0.0698545  
N2       N      0.771366666667     0.103266666667     0.247700000000    -0.0311819  
N3       N      0.683833333333     0.065066666667     0.254200000000    -0.0330482  
C1       C      0.839366666667     0.050966666667     0.291433333333     1.24773    
C6       C      0.971266666667     0.036200000000     0.277533333333     1.32654    
C5       C      0.802400000000     0.139966666667     0.218400000000     1.27071    
C3       C      0.833800000000     0.096233333333     0.253533333333     0.363497   
H3       H      0.858740333333     0.098335333333     0.251326333333    -0.101525   
C10      C      0.970133333333     0.113633333333     0.191166666667     1.33275    
C8       C      0.956600000000     0.072633333333     0.229600000000     0.386711   
H8       H      0.930385333333     0.071053666667     0.223973000000    -0.108495   
C2       C      0.819433333333     0.075100000000     0.271266666667    -0.381435   
C9       C      0.979266666667     0.090533333333     0.216200000000    -0.41633    
C7       C      0.981233333333     0.057066666667     0.253733333333    -0.402083   
C4       C      0.803133333333     0.113733333333     0.239633333333    -0.396839   
Al2      Al     0.833333333333     0.166666666667     0.500000000000     7.12335    
Al1      Al     0.911726666667     0.144516666667     0.478336666667     7.33029    
Al3      Al     0.666666666667     0.166666666667     0.500000000000     7.92307    
O4       O      0.874443333333     0.116296666667     0.460486666667    -1.74683    
O2       O      0.883353333333     0.156506666667     0.507853333333    -3.20098    
H2       H      0.896129666667     0.157477333333     0.529330000000     0.821887   
O7       O      0.937480000000     0.129643333333     0.447070000000    -1.7777     
O1       O      0.949036666667     0.171726666667     0.493753333333    -3.37432    
H1       H      0.940887333333     0.190387333333     0.499014333333     0.874716   
O5       O      0.777160000000     0.007536666667     0.385183333333    -1.77338    
O9       O      0.936286666667     0.051303333333     0.342426666667    -1.65321    
O3       O      0.819850000000     0.133740000000     0.470700000000    -1.69531    
O6       O      0.827370000000     0.025593333333     0.368300000000    -1.65055    
O10      O      0.997030000000     0.036990000000     0.353990000000    -1.80011    
O8       O      0.996930000000     0.146240000000     0.460143333333    -1.85272    
N4       N      0.681966666667     0.080933333333     0.398200000000    -0.0757734  
H4       H      0.701227666667     0.071771666667     0.393842000000     0.092024   
N1       N      0.781866666667     0.087066666667     0.433333333333    -0.0768034  
H1A      H      0.766624333333     0.097941666667     0.441532666667     0.0710141  
N2       N      0.771366666667     0.063400000000     0.414366666667    -0.0322034  
N3       N      0.683833333333     0.101600000000     0.420866666667    -0.0300423  
C1       C      0.839366666667     0.115700000000     0.458100000000     1.29084    
C6       C      0.971266666667     0.130466666667     0.444200000000     1.37249    
C5       C      0.802400000000     0.026700000000     0.385066666667     1.26111    
C3       C      0.833800000000     0.070433333333     0.420200000000     0.369557   
H3       H      0.858740333333     0.068331333333     0.417993000000    -0.105208   
C10      C      0.970133333333     0.053033333333     0.357833333333     1.2854     
C8       C      0.956600000000     0.094033333333     0.396266666667     0.385013   
H8       H      0.930385333333     0.095613000000     0.390639666667    -0.104107   
C2       C      0.819433333333     0.091566666667     0.437933333333    -0.392604   
C9       C      0.979266666667     0.076133333333     0.382866666667    -0.403041   
C7       C      0.981233333333     0.109600000000     0.420400000000    -0.409141   
C4       C      0.803133333333     0.052933333333     0.406300000000    -0.399826   
Al2      Al     0.833333333333     0.000000000000     0.333333333333     6.78257    
Al1      Al     0.754940000000     0.311183333333     0.354996666667     7.33982    
Al3      Al     0.666666666667     0.000000000000     0.333333333333     7.54671    
O4       O      0.792223333333     0.282963333333     0.372846666667    -1.74733    
O2       O      0.783313333333     0.323173333333     0.658813333333    -3.20254    
H2       H      0.770537000000     0.324144000000     0.637336666667     0.821488   
O7       O      0.729186666667     0.296310000000     0.386263333333    -1.78288    
O1       O      0.717630000000     0.005060000000     0.339580000000    -3.37574    
H1       H      0.725779333333     0.023720666667     0.334319000000     0.868311   
O5       O      0.889506666667     0.174203333333     0.448150000000    -1.7272     
O9       O      0.730380000000     0.217970000000     0.490906666667    -1.71637    
O3       O      0.846816666667     0.300406666667     0.362633333333    -1.69479    
O6       O      0.839296666667     0.192260000000     0.465033333333    -1.6951     
O10      O      0.669636666667     0.203656666667     0.479343333333    -1.88839    
O8       O      0.669736666667     0.312906666667     0.373190000000    -1.87254    
N4       N      0.984700000000     0.247600000000     0.435133333333    -0.0665848  
H4       H      0.965439000000     0.238438333333     0.439491333333     0.0941622  
N1       N      0.884800000000     0.253733333333     0.400000000000    -0.0763512  
H1A      H      0.900042333333     0.264608333333     0.391800666667     0.0732861  
N2       N      0.895300000000     0.230066666667     0.418966666667    -0.0292875  
N3       N      0.982833333333     0.268266666667     0.412466666667    -0.0223626  
C1       C      0.827300000000     0.282366666667     0.375233333333     1.29202    
C6       C      0.695400000000     0.297133333333     0.389133333333     1.38355    
C5       C      0.864266666667     0.193366666667     0.448266666667     1.2715     
C3       C      0.832866666667     0.237100000000     0.413133333333     0.372311   
H3       H      0.807926333333     0.234998000000     0.415340333333    -0.103837   
C10      C      0.696533333333     0.219700000000     0.475500000000     1.34358    
C8       C      0.710066666667     0.260700000000     0.437066666667     0.405988   
H8       H      0.736281333333     0.262279666667     0.442693666667    -0.112168   
C2       C      0.847233333333     0.258233333333     0.395400000000    -0.391246   
C9       C      0.687400000000     0.242800000000     0.450466666667    -0.430575   
C7       C      0.685433333333     0.276266666667     0.412933333333    -0.425175   
C4       C      0.863533333333     0.219600000000     0.427033333333    -0.398216   
Al1      Al     0.754940000000     0.188816666667     0.521663333333     7.33932    
O4       O      0.792223333333     0.217036666667     0.539513333333    -1.74721    
O2       O      0.783313333333     0.176826666667     0.492146666667    -3.20245    
H2       H      0.770537000000     0.175856000000     0.470670000000     0.821521   
O7       O      0.729186666667     0.203690000000     0.552930000000    -1.7827     
O1       O      0.717630000000     0.161606666667     0.506246666667    -3.3933     
H1       H      0.725779333333     0.142946000000     0.500985666667     0.876177   
O5       O      0.889506666667     0.325796666667     0.614816666667    -1.72766    
O9       O      0.730380000000     0.282030000000     0.657573333333    -1.71644    
O3       O      0.846816666667     0.199593333333     0.529300000000    -1.6946     
O6       O      0.839296666667     0.307740000000     0.631700000000    -1.6953     
O10      O      0.669636666667     0.296343333333     0.646010000000    -1.88862    
O8       O      0.669736666667     0.187093333333     0.539856666667    -1.87217    
N4       N      0.984700000000     0.252400000000     0.601800000000    -0.0665752  
H4       H      0.965439000000     0.261561666667     0.606158000000     0.094149   
N1       N      0.884800000000     0.246266666667     0.566666666667    -0.0763643  
H1A      H      0.900042333333     0.235391666667     0.558467333333     0.0733192  
N2       N      0.895300000000     0.269933333333     0.585633333333    -0.0293362  
N3       N      0.982833333333     0.231733333333     0.579133333333    -0.0223283  
C1       C      0.827300000000     0.217633333333     0.541900000000     1.292      
C6       C      0.695400000000     0.202866666667     0.555800000000     1.38348    
C5       C      0.864266666667     0.306633333333     0.614933333333     1.27153    
C3       C      0.832866666667     0.262900000000     0.579800000000     0.372313   
H3       H      0.807926333333     0.265002000000     0.582007000000    -0.103913   
C10      C      0.696533333333     0.280300000000     0.642166666667     1.34365    
C8       C      0.710066666667     0.239300000000     0.603733333333     0.405975   
H8       H      0.736281333333     0.237720333333     0.609360333333    -0.112069   
C2       C      0.847233333333     0.241766666667     0.562066666667    -0.391224   
C9       C      0.687400000000     0.257200000000     0.617133333333    -0.430567   
C7       C      0.685433333333     0.223733333333     0.579600000000    -0.425016   
C4       C      0.863533333333     0.280400000000     0.593700000000    -0.398366   
Al1      Al     0.911726666667     0.022150000000     0.645003333333     7.02953    
O4       O      0.874443333333     0.050370000000     0.627153333333    -1.68831    
O2       O      0.883353333333     0.010160000000     0.341186666667    -3.0876     
H2       H      0.896129666667     0.009189333333     0.362663333333     0.7838     
O7       O      0.937480000000     0.037023333333     0.613736666667    -1.72511    
O1       O      0.949036666667     0.328273333333     0.660420000000    -3.37484    
H1       H      0.940887333333     0.309612666667     0.665681000000     0.874787   
O5       O      0.777160000000     0.159130000000     0.551850000000    -1.72899    
O9       O      0.936286666667     0.115363333333     0.509093333333    -1.7126     
O3       O      0.819850000000     0.032926666667     0.637366666667    -1.64061    
O6       O      0.827370000000     0.141073333333     0.534966666667    -1.69579    
O10      O      0.997030000000     0.129676666667     0.520656666667    -1.86901    
O8       O      0.996930000000     0.020426666667     0.626810000000    -1.79216    
N4       N      0.681966666667     0.085733333333     0.564866666667    -0.072988   
H4       H      0.701227666667     0.094895000000     0.560508666667     0.0917767  
N1       N      0.781866666667     0.079600000000     0.600000000000    -0.0788484  
H1A      H      0.766624333333     0.068725000000     0.608199333333     0.0698437  
N2       N      0.771366666667     0.103266666667     0.581033333333    -0.0311906  
N3       N      0.683833333333     0.065066666667     0.587533333333    -0.0330579  
C1       C      0.839366666667     0.050966666667     0.624766666667     1.24772    
C6       C      0.971266666667     0.036200000000     0.610866666667     1.32653    
C5       C      0.802400000000     0.139966666667     0.551733333333     1.2707     
C3       C      0.833800000000     0.096233333333     0.586866666667     0.363493   
H3       H      0.858740333333     0.098335333333     0.584659666667    -0.101536   
C10      C      0.970133333333     0.113633333333     0.524500000000     1.33275    
C8       C      0.956600000000     0.072633333333     0.562933333333     0.386707   
H8       H      0.930385333333     0.071053666667     0.557306333333    -0.10851    
C2       C      0.819433333333     0.075100000000     0.604600000000    -0.381449   
C9       C      0.979266666667     0.090533333333     0.549533333333    -0.416347   
C7       C      0.981233333333     0.057066666667     0.587066666667    -0.402096   
C4       C      0.803133333333     0.113733333333     0.572966666667    -0.396854   
Al2      Al     0.833333333333     0.166666666667     0.833333333333     7.12334    
Al1      Al     0.911726666667     0.144516666667     0.811670000000     7.33028    
Al3      Al     0.666666666667     0.166666666667     0.833333333333     7.92303    
O4       O      0.874443333333     0.116296666667     0.793820000000    -1.74684    
O2       O      0.883353333333     0.156506666667     0.841186666667    -3.20099    
H2       H      0.896129666667     0.157477333333     0.862663333333     0.821938   
O7       O      0.937480000000     0.129643333333     0.780403333333    -1.7777     
O1       O      0.949036666667     0.171726666667     0.827086666667    -3.37431    
H1       H      0.940887333333     0.190387333333     0.832347666667     0.874715   
O5       O      0.777160000000     0.007536666667     0.718516666667    -1.77338    
O9       O      0.936286666667     0.051303333333     0.675760000000    -1.65321    
O3       O      0.819850000000     0.133740000000     0.804033333333    -1.69532    
O6       O      0.827370000000     0.025593333333     0.701633333333    -1.65054    
O10      O      0.997030000000     0.036990000000     0.687323333333    -1.80011    
O8       O      0.996930000000     0.146240000000     0.793476666667    -1.85273    
N4       N      0.681966666667     0.080933333333     0.731533333333    -0.0757754  
H4       H      0.701227666667     0.071771666667     0.727175333333     0.0920153  
N1       N      0.781866666667     0.087066666667     0.766666666667    -0.0768046  
H1A      H      0.766624333333     0.097941666667     0.774866000000     0.0710038  
N2       N      0.771366666667     0.063400000000     0.747700000000    -0.032211   
N3       N      0.683833333333     0.101600000000     0.754200000000    -0.0300507  
C1       C      0.839366666667     0.115700000000     0.791433333333     1.29083    
C6       C      0.971266666667     0.130466666667     0.777533333333     1.37248    
C5       C      0.802400000000     0.026700000000     0.718400000000     1.2611     
C3       C      0.833800000000     0.070433333333     0.753533333333     0.369553   
H3       H      0.858740333333     0.068331333333     0.751326333333    -0.105218   
C10      C      0.970133333333     0.053033333333     0.691166666667     1.28539    
C8       C      0.956600000000     0.094033333333     0.729600000000     0.385012   
H8       H      0.930385333333     0.095613000000     0.723973000000    -0.104117   
C2       C      0.819433333333     0.091566666667     0.771266666667    -0.392619   
C9       C      0.979266666667     0.076133333333     0.716200000000    -0.403056   
C7       C      0.981233333333     0.109600000000     0.753733333333    -0.409158   
C4       C      0.803133333333     0.052933333333     0.739633333333    -0.399836   
Al2      Al     0.833333333333     0.000000000000     0.666666666667     6.7825     
Al1      Al     0.754940000000     0.311183333333     0.688330000000     7.33977    
Al3      Al     0.666666666667     0.000000000000     0.666666666667     7.54665    
O4       O      0.792223333333     0.282963333333     0.706180000000    -1.74733    
O2       O      0.783313333333     0.323173333333     0.992146666667    -3.19717    
H2       H      0.770537000000     0.324144000000     0.970670000000     0.820474   
O7       O      0.729186666667     0.296310000000     0.719596666667    -1.78288    
O1       O      0.717630000000     0.005060000000     0.672913333333    -3.37572    
H1       H      0.725779333333     0.023720666667     0.667652333333     0.8683     
O5       O      0.889506666667     0.174203333333     0.781483333333    -1.72721    
O9       O      0.730380000000     0.217970000000     0.824240000000    -1.71637    
O3       O      0.846816666667     0.300406666667     0.695966666667    -1.69479    
O6       O      0.839296666667     0.192260000000     0.798366666667    -1.69511    
O10      O      0.669636666667     0.203656666667     0.812676666667    -1.88839    
O8       O      0.669736666667     0.312906666667     0.706523333333    -1.87253    
N4       N      0.984700000000     0.247600000000     0.768466666667    -0.0665884  
H4       H      0.965439000000     0.238438333333     0.772824666667     0.0941529  
N1       N      0.884800000000     0.253733333333     0.733333333333    -0.076353   
H1A      H      0.900042333333     0.264608333333     0.725134000000     0.0732765  
N2       N      0.895300000000     0.230066666667     0.752300000000    -0.0292956  
N3       N      0.982833333333     0.268266666667     0.745800000000    -0.0223724  
C1       C      0.827300000000     0.282366666667     0.708566666667     1.29201    
C6       C      0.695400000000     0.297133333333     0.722466666667     1.38354    
C5       C      0.864266666667     0.193366666667     0.781600000000     1.27149    
C3       C      0.832866666667     0.237100000000     0.746466666667     0.372307   
H3       H      0.807926333333     0.234998000000     0.748673666667    -0.103847   
C10      C      0.696533333333     0.219700000000     0.808833333333     1.34357    
C8       C      0.710066666667     0.260700000000     0.770400000000     0.405984   
H8       H      0.736281333333     0.262279666667     0.776027000000    -0.112176   
C2       C      0.847233333333     0.258233333333     0.728733333333    -0.391258   
C9       C      0.687400000000     0.242800000000     0.783800000000    -0.430586   
C7       C      0.685433333333     0.276266666667     0.746266666667    -0.425184   
C4       C      0.863533333333     0.219600000000     0.760366666667    -0.398229   
Al1      Al     0.754940000000     0.188816666667     0.854996666667     7.33928    
O4       O      0.792223333333     0.217036666667     0.872846666667    -1.74717    
O2       O      0.783313333333     0.176826666667     0.825480000000    -3.20245    
H2       H      0.770537000000     0.175856000000     0.804003333333     0.821511   
O7       O      0.729186666667     0.203690000000     0.886263333333    -1.78262    
O1       O      0.717630000000     0.161606666667     0.839580000000    -3.39329    
H1       H      0.725779333333     0.142946000000     0.834319000000     0.876167   
O5       O      0.889506666667     0.325796666667     0.948150000000    -1.72807    
O9       O      0.730380000000     0.282030000000     0.990906666667    -1.71358    
O3       O      0.846816666667     0.199593333333     0.862633333333    -1.69456    
O6       O      0.839296666667     0.307740000000     0.965033333333    -1.69292    
O10      O      0.669636666667     0.296343333333     0.979343333333    -1.88546    
O8       O      0.669736666667     0.187093333333     0.873190000000    -1.87211    
N4       N      0.984700000000     0.252400000000     0.935133333333    -0.0667099  
H4       H      0.965439000000     0.261561666667     0.939491333333     0.0942954  
N1       N      0.884800000000     0.246266666667     0.900000000000    -0.076363   
H1A      H      0.900042333333     0.235391666667     0.891800666667     0.073363   
N2       N      0.895300000000     0.269933333333     0.918966666667    -0.0292992  
N3       N      0.982833333333     0.231733333333     0.912466666667    -0.0222965  
C1       C      0.827300000000     0.217633333333     0.875233333333     1.29199    
C6       C      0.695400000000     0.202866666667     0.889133333333     1.38344    
C5       C      0.864266666667     0.306633333333     0.948266666667     1.27111    
C3       C      0.832866666667     0.262900000000     0.913133333333     0.372194   
H3       H      0.807926333333     0.265002000000     0.915340333333    -0.103785   
C10      C      0.696533333333     0.280300000000     0.975500000000     1.34205    
C8       C      0.710066666667     0.239300000000     0.937066666667     0.405572   
H8       H      0.736281333333     0.237720333333     0.942693666667    -0.111723   
C2       C      0.847233333333     0.241766666667     0.895400000000    -0.391099   
C9       C      0.687400000000     0.257200000000     0.950466666667    -0.429755   
C7       C      0.685433333333     0.223733333333     0.912933333333    -0.424767   
C4       C      0.863533333333     0.280400000000     0.927033333333    -0.398076   
Al1      Al     0.911726666667     0.022150000000     0.978336666667     7.03418    
O4       O      0.874443333333     0.050370000000     0.960486666667    -1.68841    
O2       O      0.883353333333     0.010160000000     0.674520000000    -3.08759    
H2       H      0.896129666667     0.009189333333     0.695996666667     0.783788   
O7       O      0.937480000000     0.037023333333     0.947070000000    -1.72538    
O1       O      0.949036666667     0.328273333333     0.993753333333    -3.37256    
H1       H      0.940887333333     0.309612666667     0.999014333333     0.874811   
O5       O      0.777160000000     0.159130000000     0.885183333333    -1.72889    
O9       O      0.936286666667     0.115363333333     0.842426666667    -1.71259    
O3       O      0.819850000000     0.032926666667     0.970700000000    -1.63817    
O6       O      0.827370000000     0.141073333333     0.868300000000    -1.69576    
O10      O      0.997030000000     0.129676666667     0.853990000000    -1.86899    
O8       O      0.996930000000     0.020426666667     0.960143333333    -1.78952    
N4       N      0.681966666667     0.085733333333     0.898200000000    -0.0729789  
H4       H      0.701227666667     0.094895000000     0.893842000000     0.0918321  
N1       N      0.781866666667     0.079600000000     0.933333333333    -0.0789165  
H1A      H      0.766624333333     0.068725000000     0.941532666667     0.0701032  
N2       N      0.771366666667     0.103266666667     0.914366666667    -0.0311076  
N3       N      0.683833333333     0.065066666667     0.920866666667    -0.032955   
C1       C      0.839366666667     0.050966666667     0.958100000000     1.24728    
C6       C      0.971266666667     0.036200000000     0.944200000000     1.32602    
C5       C      0.802400000000     0.139966666667     0.885066666667     1.27071    
C3       C      0.833800000000     0.096233333333     0.920200000000     0.363393   
H3       H      0.858740333333     0.098335333333     0.917993000000    -0.101381   
C10      C      0.970133333333     0.113633333333     0.857833333333     1.33274    
C8       C      0.956600000000     0.072633333333     0.896266666667     0.386623   
H8       H      0.930385333333     0.071053666667     0.890639666667    -0.108445   
C2       C      0.819433333333     0.075100000000     0.937933333333    -0.381044   
C9       C      0.979266666667     0.090533333333     0.882866666667    -0.416269   
C7       C      0.981233333333     0.057066666667     0.920400000000    -0.401774   
C4       C      0.803133333333     0.113733333333     0.906300000000    -0.396718   
Al2      Al     0.833333333333     0.500000000000     0.166666666667     7.12311    
Al1      Al     0.911726666667     0.477850000000     0.145003333333     7.33075    
Al3      Al     0.666666666667     0.500000000000     0.166666666667     7.92334    
O4       O      0.874443333333     0.449630000000     0.127153333333    -1.74587    
O2       O      0.883353333333     0.489840000000     0.174520000000    -3.2009     
H2       H      0.896129666667     0.490810666667     0.195996666667     0.821699   
O7       O      0.937480000000     0.462976666667     0.113736666667    -1.77783    
O1       O      0.949036666667     0.505060000000     0.160420000000    -3.37466    
H1       H      0.940887333333     0.523720666667     0.165681000000     0.874603   
O5       O      0.777160000000     0.340870000000     0.051850000000    -1.72753    
O9       O      0.936286666667     0.384636666667     0.009093333333    -1.71291    
O3       O      0.819850000000     0.467073333333     0.137366666667    -1.69492    
O6       O      0.827370000000     0.358926666667     0.034966666667    -1.69373    
O10      O      0.997030000000     0.370323333333     0.020656666667    -1.86722    
O8       O      0.996930000000     0.479573333333     0.126810000000    -1.85302    
N4       N      0.681966666667     0.414266666667     0.064866666667    -0.0722933  
H4       H      0.701227666667     0.405105000000     0.060508666667     0.0929903  
N1       N      0.781866666667     0.420400000000     0.100000000000    -0.0763878  
H1A      H      0.766624333333     0.431275000000     0.108199333333     0.072207   
N2       N      0.771366666667     0.396733333333     0.081033333333    -0.0302465  
N3       N      0.683833333333     0.434933333333     0.087533333333    -0.0287758  
C1       C      0.839366666667     0.449033333333     0.124766666667     1.29129    
C6       C      0.971266666667     0.463800000000     0.110866666667     1.37411    
C5       C      0.802400000000     0.360033333333     0.051733333333     1.27052    
C3       C      0.833800000000     0.403766666667     0.086866666667     0.372033   
H3       H      0.858740333333     0.401664666667     0.084659666667    -0.103789   
C10      C      0.970133333333     0.386366666667     0.024500000000     1.33368    
C8       C      0.956600000000     0.427366666667     0.062933333333     0.395702   
H8       H      0.930385333333     0.428946333333     0.057306333333    -0.108332   
C2       C      0.819433333333     0.424900000000     0.104600000000    -0.391596   
C9       C      0.979266666667     0.409466666667     0.049533333333    -0.417145   
C7       C      0.981233333333     0.442933333333     0.087066666667    -0.41185    
C4       C      0.803133333333     0.386266666667     0.072966666667    -0.398536   
Al2      Al     0.833333333333     0.333333333333     0.000000000000     7.11282    
Al1      Al     0.754940000000     0.644516666667     0.021663333333     7.32893    
Al3      Al     0.666666666667     0.333333333333     0.000000000000     7.9119     
O4       O      0.792223333333     0.616296666667     0.039513333333    -1.74571    
O2       O      0.783313333333     0.656506666667     0.325480000000    -3.20216    
H2       H      0.770537000000     0.657477333333     0.304003333333     0.82124    
O7       O      0.729186666667     0.629643333333     0.052930000000    -1.78098    
O1       O      0.717630000000     0.338393333333     0.006246666667    -3.38983    
H1       H      0.725779333333     0.357054000000     0.000985666667     0.875682   
O5       O      0.889506666667     0.507536666667     0.114816666667    -1.72773    
O9       O      0.730380000000     0.551303333333     0.157573333333    -1.71654    
O3       O      0.846816666667     0.633740000000     0.029300000000    -1.69298    
O6       O      0.839296666667     0.525593333333     0.131700000000    -1.69536    
O10      O      0.669636666667     0.536990000000     0.146010000000    -1.88866    
O8       O      0.669736666667     0.646240000000     0.039856666667    -1.87042    
N4       N      0.984700000000     0.580933333333     0.101800000000    -0.0666501  
H4       H      0.965439000000     0.571771666667     0.106158000000     0.0938824  
N1       N      0.884800000000     0.587066666667     0.066666666667    -0.0764779  
H1A      H      0.900042333333     0.597941666667     0.058467333333     0.0728919  
N2       N      0.895300000000     0.563400000000     0.085633333333    -0.0295866  
N3       N      0.982833333333     0.601600000000     0.079133333333    -0.0227532  
C1       C      0.827300000000     0.615700000000     0.041900000000     1.29033    
C6       C      0.695400000000     0.630466666667     0.055800000000     1.38172    
C5       C      0.864266666667     0.526700000000     0.114933333333     1.27133    
C3       C      0.832866666667     0.570433333333     0.079800000000     0.371948   
H3       H      0.807926333333     0.568331333333     0.082007000000    -0.104099   
C10      C      0.696533333333     0.553033333333     0.142166666667     1.34345    
C8       C      0.710066666667     0.594033333333     0.103733333333     0.405608   
H8       H      0.736281333333     0.595613000000     0.109360333333    -0.112304   
C2       C      0.847233333333     0.591566666667     0.062066666667    -0.391309   
C9       C      0.687400000000     0.576133333333     0.117133333333    -0.430864   
C7       C      0.685433333333     0.609600000000     0.079600000000    -0.425086   
C4       C      0.863533333333     0.552933333333     0.093700000000    -0.398586   
Al1      Al     0.754940000000     0.522150000000     0.188330000000     7.33906    
O4       O      0.792223333333     0.550370000000     0.206180000000    -1.74741    
O2       O      0.783313333333     0.510160000000     0.158813333333    -3.20233    
H2       H      0.770537000000     0.509189333333     0.137336666667     0.82131    
O7       O      0.729186666667     0.537023333333     0.219596666667    -1.7829     
O1       O      0.717630000000     0.494940000000     0.172913333333    -3.39351    
H1       H      0.725779333333     0.476279333333     0.167652333333     0.876967   
O5       O      0.889506666667     0.659130000000     0.281483333333    -1.72762    
O9       O      0.730380000000     0.615363333333     0.324240000000    -1.71645    
O3       O      0.846816666667     0.532926666667     0.195966666667    -1.69482    
O6       O      0.839296666667     0.641073333333     0.298366666667    -1.69527    
O10      O      0.669636666667     0.629676666667     0.312676666667    -1.88855    
O8       O      0.669736666667     0.520426666667     0.206523333333    -1.87253    
N4       N      0.984700000000     0.585733333333     0.268466666667    -0.0666245  
H4       H      0.965439000000     0.594895000000     0.272824666667     0.0939162  
N1       N      0.884800000000     0.579600000000     0.233333333333    -0.0763994  
H1A      H      0.900042333333     0.568725000000     0.225134000000     0.0730546  
N2       N      0.895300000000     0.603266666667     0.252300000000    -0.0295305  
N3       N      0.982833333333     0.565066666667     0.245800000000    -0.0225546  
C1       C      0.827300000000     0.550966666667     0.208566666667     1.29185    
C6       C      0.695400000000     0.536200000000     0.222466666667     1.38337    
C5       C      0.864266666667     0.639966666667     0.281600000000     1.27127    
C3       C      0.832866666667     0.596233333333     0.246466666667     0.372221   
H3       H      0.807926333333     0.598335333333     0.248673666667    -0.104128   
C10      C      0.696533333333     0.613633333333     0.308833333333     1.34341    
C8       C      0.710066666667     0.572633333333     0.270400000000     0.405908   
H8       H      0.736281333333     0.571053666667     0.276027000000    -0.112356   
C2       C      0.847233333333     0.575100000000     0.228733333333    -0.391573   
C9       C      0.687400000000     0.590533333333     0.283800000000    -0.430897   
C7       C      0.685433333333     0.557066666667     0.246266666667    -0.425405   
C4       C      0.863533333333     0.613733333333     0.260366666667    -0.398616   
Al1      Al     0.911726666667     0.355483333333     0.311670000000     7.3313     
O4       O      0.874443333333     0.383703333333     0.293820000000    -1.74596    
O2       O      0.883353333333     0.343493333333     0.007853333333    -3.20076    
H2       H      0.896129666667     0.342522666667     0.029330000000     0.821618   
O7       O      0.937480000000     0.370356666667     0.280403333333    -1.77785    
O1       O      0.949036666667     0.661606666667     0.327086666667    -3.37444    
H1       H      0.940887333333     0.642946000000     0.332347666667     0.874532   
O5       O      0.777160000000     0.492463333333     0.218516666667    -1.72938    
O9       O      0.936286666667     0.448696666667     0.175760000000    -1.71149    
O3       O      0.819850000000     0.366260000000     0.304033333333    -1.69499    
O6       O      0.827370000000     0.474406666667     0.201633333333    -1.69549    
O10      O      0.997030000000     0.463010000000     0.187323333333    -1.86878    
O8       O      0.996930000000     0.353760000000     0.293476666667    -1.85304    
N4       N      0.681966666667     0.419066666667     0.231533333333    -0.072262   
H4       H      0.701227666667     0.428228333333     0.227175333333     0.0930535  
N1       N      0.781866666667     0.412933333333     0.266666666667    -0.0763594  
H1A      H      0.766624333333     0.402058333333     0.274866000000     0.0722463  
N2       N      0.771366666667     0.436600000000     0.247700000000    -0.0301849  
N3       N      0.683833333333     0.398400000000     0.254200000000    -0.02872    
C1       C      0.839366666667     0.384300000000     0.291433333333     1.29145    
C6       C      0.971266666667     0.369533333333     0.277533333333     1.37423    
C5       C      0.802400000000     0.473300000000     0.218400000000     1.27182    
C3       C      0.833800000000     0.429566666667     0.253533333333     0.372342   
H3       H      0.858740333333     0.431668666667     0.251326333333    -0.103883   
C10      C      0.970133333333     0.446966666667     0.191166666667     1.3341     
C8       C      0.956600000000     0.405966666667     0.229600000000     0.395733   
H8       H      0.930385333333     0.404387000000     0.223973000000    -0.108156   
C2       C      0.819433333333     0.408433333333     0.271266666667    -0.391654   
C9       C      0.979266666667     0.423866666667     0.216200000000    -0.417061   
C7       C      0.981233333333     0.390400000000     0.253733333333    -0.411731   
C4       C      0.803133333333     0.447066666667     0.239633333333    -0.398928   
Al2      Al     0.833333333333     0.500000000000     0.500000000000     7.12313    
Al1      Al     0.911726666667     0.477850000000     0.478336666667     7.33074    
Al3      Al     0.666666666667     0.500000000000     0.500000000000     7.92332    
O4       O      0.874443333333     0.449630000000     0.460486666667    -1.74586    
O2       O      0.883353333333     0.489840000000     0.507853333333    -3.20091    
H2       H      0.896129666667     0.490810666667     0.529330000000     0.821692   
O7       O      0.937480000000     0.462976666667     0.447070000000    -1.77778    
O1       O      0.949036666667     0.505060000000     0.493753333333    -3.37465    
H1       H      0.940887333333     0.523720666667     0.499014333333     0.874593   
O5       O      0.777160000000     0.340870000000     0.385183333333    -1.72945    
O9       O      0.936286666667     0.384636666667     0.342426666667    -1.71162    
O3       O      0.819850000000     0.467073333333     0.470700000000    -1.69491    
O6       O      0.827370000000     0.358926666667     0.368300000000    -1.69559    
O10      O      0.997030000000     0.370323333333     0.353990000000    -1.86889    
O8       O      0.996930000000     0.479573333333     0.460143333333    -1.85298    
N4       N      0.681966666667     0.414266666667     0.398200000000    -0.0722593  
H4       H      0.701227666667     0.405105000000     0.393842000000     0.0930485  
N1       N      0.781866666667     0.420400000000     0.433333333333    -0.0763614  
H1A      H      0.766624333333     0.431275000000     0.441532666667     0.0722285  
N2       N      0.771366666667     0.396733333333     0.414366666667    -0.0301671  
N3       N      0.683833333333     0.434933333333     0.420866666667    -0.0287443  
C1       C      0.839366666667     0.449033333333     0.458100000000     1.29135    
C6       C      0.971266666667     0.463800000000     0.444200000000     1.37412    
C5       C      0.802400000000     0.360033333333     0.385066666667     1.27194    
C3       C      0.833800000000     0.403766666667     0.420200000000     0.372344   
H3       H      0.858740333333     0.401664666667     0.417993000000    -0.103861   
C10      C      0.970133333333     0.386366666667     0.357833333333     1.3342     
C8       C      0.956600000000     0.427366666667     0.396266666667     0.395736   
H8       H      0.930385333333     0.428946333333     0.390639666667    -0.108205   
C2       C      0.819433333333     0.424900000000     0.437933333333    -0.391649   
C9       C      0.979266666667     0.409466666667     0.382866666667    -0.417105   
C7       C      0.981233333333     0.442933333333     0.420400000000    -0.411769   
C4       C      0.803133333333     0.386266666667     0.406300000000    -0.398912   
Al2      Al     0.833333333333     0.333333333333     0.333333333333     7.12378    
Al1      Al     0.754940000000     0.644516666667     0.354996666667     7.33857    
Al3      Al     0.666666666667     0.333333333333     0.333333333333     7.92401    
O4       O      0.792223333333     0.616296666667     0.372846666667    -1.74732    
O2       O      0.783313333333     0.656506666667     0.658813333333    -3.20214    
H2       H      0.770537000000     0.657477333333     0.637336666667     0.821226   
O7       O      0.729186666667     0.629643333333     0.386263333333    -1.78285    
O1       O      0.717630000000     0.338393333333     0.339580000000    -3.39375    
H1       H      0.725779333333     0.357054000000     0.334319000000     0.877039   
O5       O      0.889506666667     0.507536666667     0.448150000000    -1.72767    
O9       O      0.730380000000     0.551303333333     0.490906666667    -1.71656    
O3       O      0.846816666667     0.633740000000     0.362633333333    -1.69475    
O6       O      0.839296666667     0.525593333333     0.465033333333    -1.69535    
O10      O      0.669636666667     0.536990000000     0.479343333333    -1.88865    
O8       O      0.669736666667     0.646240000000     0.373190000000    -1.87248    
N4       N      0.984700000000     0.580933333333     0.435133333333    -0.0666223  
H4       H      0.965439000000     0.571771666667     0.439491333333     0.0939134  
N1       N      0.884800000000     0.587066666667     0.400000000000    -0.0764005  
H1A      H      0.900042333333     0.597941666667     0.391800666667     0.0730337  
N2       N      0.895300000000     0.563400000000     0.418966666667    -0.0295132  
N3       N      0.982833333333     0.601600000000     0.412466666667    -0.0225798  
C1       C      0.827300000000     0.615700000000     0.375233333333     1.29176    
C6       C      0.695400000000     0.630466666667     0.389133333333     1.38327    
C5       C      0.864266666667     0.526700000000     0.448266666667     1.27138    
C3       C      0.832866666667     0.570433333333     0.413133333333     0.372224   
H3       H      0.807926333333     0.568331333333     0.415340333333    -0.104106   
C10      C      0.696533333333     0.553033333333     0.475500000000     1.3435     
C8       C      0.710066666667     0.594033333333     0.437066666667     0.405911   
H8       H      0.736281333333     0.595613000000     0.442693666667    -0.112404   
C2       C      0.847233333333     0.591566666667     0.395400000000    -0.391574   
C9       C      0.687400000000     0.576133333333     0.450466666667    -0.430935   
C7       C      0.685433333333     0.609600000000     0.412933333333    -0.425447   
C4       C      0.863533333333     0.552933333333     0.427033333333    -0.398597   
Al1      Al     0.754940000000     0.522150000000     0.521663333333     7.33906    
O4       O      0.792223333333     0.550370000000     0.539513333333    -1.74742    
O2       O      0.783313333333     0.510160000000     0.492146666667    -3.20234    
H2       H      0.770537000000     0.509189333333     0.470670000000     0.821355   
O7       O      0.729186666667     0.537023333333     0.552930000000    -1.78291    
O1       O      0.717630000000     0.494940000000     0.506246666667    -3.39351    
H1       H      0.725779333333     0.476279333333     0.500985666667     0.876965   
O5       O      0.889506666667     0.659130000000     0.614816666667    -1.72762    
O9       O      0.730380000000     0.615363333333     0.657573333333    -1.71645    
O3       O      0.846816666667     0.532926666667     0.529300000000    -1.69483    
O6       O      0.839296666667     0.641073333333     0.631700000000    -1.69527    
O10      O      0.669636666667     0.629676666667     0.646010000000    -1.88855    
O8       O      0.669736666667     0.520426666667     0.539856666667    -1.87253    
N4       N      0.984700000000     0.585733333333     0.601800000000    -0.0666269  
H4       H      0.965439000000     0.594895000000     0.606158000000     0.0939061  
N1       N      0.884800000000     0.579600000000     0.566666666667    -0.076401   
H1A      H      0.900042333333     0.568725000000     0.558467333333     0.0730417  
N2       N      0.895300000000     0.603266666667     0.585633333333    -0.0295405  
N3       N      0.982833333333     0.565066666667     0.579133333333    -0.0225642  
C1       C      0.827300000000     0.550966666667     0.541900000000     1.29184    
C6       C      0.695400000000     0.536200000000     0.555800000000     1.38337    
C5       C      0.864266666667     0.639966666667     0.614933333333     1.27126    
C3       C      0.832866666667     0.596233333333     0.579800000000     0.372217   
H3       H      0.807926333333     0.598335333333     0.582007000000    -0.10414    
C10      C      0.696533333333     0.613633333333     0.642166666667     1.3434     
C8       C      0.710066666667     0.572633333333     0.603733333333     0.405904   
H8       H      0.736281333333     0.571053666667     0.609360333333    -0.112366   
C2       C      0.847233333333     0.575100000000     0.562066666667    -0.391592   
C9       C      0.687400000000     0.590533333333     0.617133333333    -0.43091    
C7       C      0.685433333333     0.557066666667     0.579600000000    -0.425419   
C4       C      0.863533333333     0.613733333333     0.593700000000    -0.39863    
Al1      Al     0.911726666667     0.355483333333     0.645003333333     7.33125    
O4       O      0.874443333333     0.383703333333     0.627153333333    -1.74596    
O2       O      0.883353333333     0.343493333333     0.341186666667    -3.20111    
H2       H      0.896129666667     0.342522666667     0.362663333333     0.82182    
O7       O      0.937480000000     0.370356666667     0.613736666667    -1.77785    
O1       O      0.949036666667     0.661606666667     0.660420000000    -3.37443    
H1       H      0.940887333333     0.642946000000     0.665681000000     0.874522   
O5       O      0.777160000000     0.492463333333     0.551850000000    -1.72939    
O9       O      0.936286666667     0.448696666667     0.509093333333    -1.71151    
O3       O      0.819850000000     0.366260000000     0.637366666667    -1.69499    
O6       O      0.827370000000     0.474406666667     0.534966666667    -1.6955     
O10      O      0.997030000000     0.463010000000     0.520656666667    -1.86878    
O8       O      0.996930000000     0.353760000000     0.626810000000    -1.85304    
N4       N      0.681966666667     0.419066666667     0.564866666667    -0.0722636  
H4       H      0.701227666667     0.428228333333     0.560508666667     0.0930421  
N1       N      0.781866666667     0.412933333333     0.600000000000    -0.0763616  
H1A      H      0.766624333333     0.402058333333     0.608199333333     0.0722356  
N2       N      0.771366666667     0.436600000000     0.581033333333    -0.0301936  
N3       N      0.683833333333     0.398400000000     0.587533333333    -0.0287297  
C1       C      0.839366666667     0.384300000000     0.624766666667     1.29143    
C6       C      0.971266666667     0.369533333333     0.610866666667     1.37422    
C5       C      0.802400000000     0.473300000000     0.551733333333     1.27182    
C3       C      0.833800000000     0.429566666667     0.586866666667     0.372338   
H3       H      0.858740333333     0.431668666667     0.584659666667    -0.103894   
C10      C      0.970133333333     0.446966666667     0.524500000000     1.33409    
C8       C      0.956600000000     0.405966666667     0.562933333333     0.39573    
H8       H      0.930385333333     0.404387000000     0.557306333333    -0.10817    
C2       C      0.819433333333     0.408433333333     0.604600000000    -0.391668   
C9       C      0.979266666667     0.423866666667     0.549533333333    -0.417079   
C7       C      0.981233333333     0.390400000000     0.587066666667    -0.411745   
C4       C      0.803133333333     0.447066666667     0.572966666667    -0.398943   
Al2      Al     0.833333333333     0.500000000000     0.833333333333     7.12312    
Al1      Al     0.911726666667     0.477850000000     0.811670000000     7.33073    
Al3      Al     0.666666666667     0.500000000000     0.833333333333     7.92328    
O4       O      0.874443333333     0.449630000000     0.793820000000    -1.74587    
O2       O      0.883353333333     0.489840000000     0.841186666667    -3.20092    
H2       H      0.896129666667     0.490810666667     0.862663333333     0.821743   
O7       O      0.937480000000     0.462976666667     0.780403333333    -1.77779    
O1       O      0.949036666667     0.505060000000     0.827086666667    -3.37464    
H1       H      0.940887333333     0.523720666667     0.832347666667     0.874592   
O5       O      0.777160000000     0.340870000000     0.718516666667    -1.72945    
O9       O      0.936286666667     0.384636666667     0.675760000000    -1.71161    
O3       O      0.819850000000     0.467073333333     0.804033333333    -1.69492    
O6       O      0.827370000000     0.358926666667     0.701633333333    -1.69559    
O10      O      0.997030000000     0.370323333333     0.687323333333    -1.86889    
O8       O      0.996930000000     0.479573333333     0.793476666667    -1.85299    
N4       N      0.681966666667     0.414266666667     0.731533333333    -0.0722612  
H4       H      0.701227666667     0.405105000000     0.727175333333     0.0930398  
N1       N      0.781866666667     0.420400000000     0.766666666667    -0.0763626  
H1A      H      0.766624333333     0.431275000000     0.774866000000     0.0722182  
N2       N      0.771366666667     0.396733333333     0.747700000000    -0.0301748  
N3       N      0.683833333333     0.434933333333     0.754200000000    -0.0287527  
C1       C      0.839366666667     0.449033333333     0.791433333333     1.29134    
C6       C      0.971266666667     0.463800000000     0.777533333333     1.37412    
C5       C      0.802400000000     0.360033333333     0.718400000000     1.27193    
C3       C      0.833800000000     0.403766666667     0.753533333333     0.372341   
H3       H      0.858740333333     0.401664666667     0.751326333333    -0.103871   
C10      C      0.970133333333     0.386366666667     0.691166666667     1.33419    
C8       C      0.956600000000     0.427366666667     0.729600000000     0.395735   
H8       H      0.930385333333     0.428946333333     0.723973000000    -0.108216   
C2       C      0.819433333333     0.424900000000     0.771266666667    -0.391663   
C9       C      0.979266666667     0.409466666667     0.716200000000    -0.417119   
C7       C      0.981233333333     0.442933333333     0.753733333333    -0.411786   
C4       C      0.803133333333     0.386266666667     0.739633333333    -0.398922   
Al2      Al     0.833333333333     0.333333333333     0.666666666667     7.12372    
Al1      Al     0.754940000000     0.644516666667     0.688330000000     7.33851    
Al3      Al     0.666666666667     0.333333333333     0.666666666667     7.92395    
O4       O      0.792223333333     0.616296666667     0.706180000000    -1.74732    
O2       O      0.783313333333     0.656506666667     0.992146666667    -3.19676    
H2       H      0.770537000000     0.657477333333     0.970670000000     0.820211   
O7       O      0.729186666667     0.629643333333     0.719596666667    -1.78285    
O1       O      0.717630000000     0.338393333333     0.672913333333    -3.39373    
H1       H      0.725779333333     0.357054000000     0.667652333333     0.877028   
O5       O      0.889506666667     0.507536666667     0.781483333333    -1.72767    
O9       O      0.730380000000     0.551303333333     0.824240000000    -1.71656    
O3       O      0.846816666667     0.633740000000     0.695966666667    -1.69475    
O6       O      0.839296666667     0.525593333333     0.798366666667    -1.69536    
O10      O      0.669636666667     0.536990000000     0.812676666667    -1.88865    
O8       O      0.669736666667     0.646240000000     0.706523333333    -1.87248    
N4       N      0.984700000000     0.580933333333     0.768466666667    -0.0666258  
H4       H      0.965439000000     0.571771666667     0.772824666667     0.093904   
N1       N      0.884800000000     0.587066666667     0.733333333333    -0.0764024  
H1A      H      0.900042333333     0.597941666667     0.725134000000     0.0730242  
N2       N      0.895300000000     0.563400000000     0.752300000000    -0.0295213  
N3       N      0.982833333333     0.601600000000     0.745800000000    -0.0225896  
C1       C      0.827300000000     0.615700000000     0.708566666667     1.29174    
C6       C      0.695400000000     0.630466666667     0.722466666667     1.38326    
C5       C      0.864266666667     0.526700000000     0.781600000000     1.27138    
C3       C      0.832866666667     0.570433333333     0.746466666667     0.37222    
H3       H      0.807926333333     0.568331333333     0.748673666667    -0.104116   
C10      C      0.696533333333     0.553033333333     0.808833333333     1.34349    
C8       C      0.710066666667     0.594033333333     0.770400000000     0.405907   
H8       H      0.736281333333     0.595613000000     0.776027000000    -0.112412   
C2       C      0.847233333333     0.591566666667     0.728733333333    -0.391586   
C9       C      0.687400000000     0.576133333333     0.783800000000    -0.430946   
C7       C      0.685433333333     0.609600000000     0.746266666667    -0.425456   
C4       C      0.863533333333     0.552933333333     0.760366666667    -0.39861    
Al1      Al     0.754940000000     0.522150000000     0.854996666667     7.33902    
O4       O      0.792223333333     0.550370000000     0.872846666667    -1.74738    
O2       O      0.783313333333     0.510160000000     0.825480000000    -3.20234    
H2       H      0.770537000000     0.509189333333     0.804003333333     0.821345   
O7       O      0.729186666667     0.537023333333     0.886263333333    -1.78283    
O1       O      0.717630000000     0.494940000000     0.839580000000    -3.39349    
H1       H      0.725779333333     0.476279333333     0.834319000000     0.876955   
O5       O      0.889506666667     0.659130000000     0.948150000000    -1.72803    
O9       O      0.730380000000     0.615363333333     0.990906666667    -1.71359    
O3       O      0.846816666667     0.532926666667     0.862633333333    -1.6948     
O6       O      0.839296666667     0.641073333333     0.965033333333    -1.69288    
O10      O      0.669636666667     0.629676666667     0.979343333333    -1.8854     
O8       O      0.669736666667     0.520426666667     0.873190000000    -1.87247    
N4       N      0.984700000000     0.585733333333     0.935133333333    -0.0667617  
H4       H      0.965439000000     0.594895000000     0.939491333333     0.0940526  
N1       N      0.884800000000     0.579600000000     0.900000000000    -0.0763996  
H1A      H      0.900042333333     0.568725000000     0.891800666667     0.0730856  
N2       N      0.895300000000     0.603266666667     0.918966666667    -0.0295034  
N3       N      0.982833333333     0.565066666667     0.912466666667    -0.0225323  
C1       C      0.827300000000     0.550966666667     0.875233333333     1.29183    
C6       C      0.695400000000     0.536200000000     0.889133333333     1.38332    
C5       C      0.864266666667     0.639966666667     0.948266666667     1.27084    
C3       C      0.832866666667     0.596233333333     0.913133333333     0.372098   
H3       H      0.807926333333     0.598335333333     0.915340333333    -0.104012   
C10      C      0.696533333333     0.613633333333     0.975500000000     1.3418     
C8       C      0.710066666667     0.572633333333     0.937066666667     0.4055     
H8       H      0.736281333333     0.571053666667     0.942693666667    -0.112021   
C2       C      0.847233333333     0.575100000000     0.895400000000    -0.391466   
C9       C      0.687400000000     0.590533333333     0.950466666667    -0.430097   
C7       C      0.685433333333     0.557066666667     0.912933333333    -0.42517    
C4       C      0.863533333333     0.613733333333     0.927033333333    -0.39834    
Al1      Al     0.911726666667     0.355483333333     0.978336666667     7.33589    
O4       O      0.874443333333     0.383703333333     0.960486666667    -1.74605    
O2       O      0.883353333333     0.343493333333     0.674520000000    -3.20109    
H2       H      0.896129666667     0.342522666667     0.695996666667     0.821809   
O7       O      0.937480000000     0.370356666667     0.947070000000    -1.77811    
O1       O      0.949036666667     0.661606666667     0.993753333333    -3.37215    
H1       H      0.940887333333     0.642946000000     0.999014333333     0.874545   
O5       O      0.777160000000     0.492463333333     0.885183333333    -1.7293     
O9       O      0.936286666667     0.448696666667     0.842426666667    -1.7115     
O3       O      0.819850000000     0.366260000000     0.970700000000    -1.69255    
O6       O      0.827370000000     0.474406666667     0.868300000000    -1.69547    
O10      O      0.997030000000     0.463010000000     0.853990000000    -1.86876    
O8       O      0.996930000000     0.353760000000     0.960143333333    -1.85038    
N4       N      0.681966666667     0.419066666667     0.898200000000    -0.0722545  
H4       H      0.701227666667     0.428228333333     0.893842000000     0.0930975  
N1       N      0.781866666667     0.412933333333     0.933333333333    -0.0764301  
H1A      H      0.766624333333     0.402058333333     0.941532666667     0.0724958  
N2       N      0.771366666667     0.436600000000     0.914366666667    -0.0301105  
N3       N      0.683833333333     0.398400000000     0.920866666667    -0.0286267  
C1       C      0.839366666667     0.384300000000     0.958100000000     1.29099    
C6       C      0.971266666667     0.369533333333     0.944200000000     1.37371    
C5       C      0.802400000000     0.473300000000     0.885066666667     1.27182    
C3       C      0.833800000000     0.429566666667     0.920200000000     0.372236   
H3       H      0.858740333333     0.431668666667     0.917993000000    -0.103739   
C10      C      0.970133333333     0.446966666667     0.857833333333     1.33409    
C8       C      0.956600000000     0.405966666667     0.896266666667     0.395644   
H8       H      0.930385333333     0.404387000000     0.890639666667    -0.108105   
C2       C      0.819433333333     0.408433333333     0.937933333333    -0.391261   
C9       C      0.979266666667     0.423866666667     0.882866666667    -0.417      
C7       C      0.981233333333     0.390400000000     0.920400000000    -0.41142    
C4       C      0.803133333333     0.447066666667     0.906300000000    -0.398806   
Al2      Al     0.833333333333     0.833333333333     0.166666666667     7.12234    
Al1      Al     0.911726666667     0.811183333333     0.145003333333     7.3303     
Al3      Al     0.666666666667     0.833333333333     0.166666666667     7.92307    
O4       O      0.874443333333     0.782963333333     0.127153333333    -1.74601    
O2       O      0.883353333333     0.823173333333     0.174520000000    -3.20065    
H2       H      0.896129666667     0.824144000000     0.195996666667     0.821559   
O7       O      0.937480000000     0.796310000000     0.113736666667    -1.77795    
O1       O      0.949036666667     0.838393333333     0.160420000000    -3.37478    
H1       H      0.940887333333     0.857054000000     0.165681000000     0.875506   
O5       O      0.777160000000     0.674203333333     0.051850000000    -1.72749    
O9       O      0.936286666667     0.717970000000     0.009093333333    -1.71288    
O3       O      0.819850000000     0.800406666667     0.137366666667    -1.69502    
O6       O      0.827370000000     0.692260000000     0.034966666667    -1.69367    
O10      O      0.997030000000     0.703656666667     0.020656666667    -1.86715    
O8       O      0.996930000000     0.812906666667     0.126810000000    -1.85323    
N4       N      0.681966666667     0.747600000000     0.064866666667    -0.0723373  
H4       H      0.701227666667     0.738438333333     0.060508666667     0.0927878  
N1       N      0.781866666667     0.753733333333     0.100000000000    -0.0764243  
H1A      H      0.766624333333     0.764608333333     0.108199333333     0.0719771  
N2       N      0.771366666667     0.730066666667     0.081033333333    -0.0304307  
N3       N      0.683833333333     0.768266666667     0.087533333333    -0.0289651  
C1       C      0.839366666667     0.782366666667     0.124766666667     1.29111    
C6       C      0.971266666667     0.797133333333     0.110866666667     1.374      
C5       C      0.802400000000     0.693366666667     0.051733333333     1.27025    
C3       C      0.833800000000     0.737100000000     0.086866666667     0.371935   
H3       H      0.858740333333     0.734998000000     0.084659666667    -0.103992   
C10      C      0.970133333333     0.719700000000     0.024500000000     1.33343    
C8       C      0.956600000000     0.760700000000     0.062933333333     0.395642   
H8       H      0.930385333333     0.762279666667     0.057306333333    -0.108539   
C2       C      0.819433333333     0.758233333333     0.104600000000    -0.391894   
C9       C      0.979266666667     0.742800000000     0.049533333333    -0.417415   
C7       C      0.981233333333     0.776266666667     0.087066666667    -0.412138   
C4       C      0.803133333333     0.719600000000     0.072966666667    -0.398769   
Al2      Al     0.833333333333     0.666666666667     0.000000000000     7.11157    
Al1      Al     0.754940000000     0.977850000000     0.021663333333     7.47499    
Al3      Al     0.666666666667     0.666666666667     0.000000000000     7.91058    
O4       O      0.792223333333     0.949630000000     0.039513333333    -1.75602    
O2       O      0.783313333333     0.989840000000     0.325480000000    -3.1378     
H2       H      0.770537000000     0.990810666667     0.304003333333     0.821748   
O7       O      0.729186666667     0.962976666667     0.052930000000    -1.78337    
O1       O      0.717630000000     0.671726666667     0.006246666667    -3.38941    
H1       H      0.725779333333     0.690387333333     0.000985666667     0.875435   
O5       O      0.889506666667     0.840870000000     0.114816666667    -1.72758    
O9       O      0.730380000000     0.884636666667     0.157573333333    -1.71433    
O3       O      0.846816666667     0.967073333333     0.029300000000    -1.61587    
O6       O      0.839296666667     0.858926666667     0.131700000000    -1.69431    
O10      O      0.669636666667     0.870323333333     0.146010000000    -1.8877     
O8       O      0.669736666667     0.979573333333     0.039856666667    -1.78354    
N4       N      0.984700000000     0.914266666667     0.101800000000    -0.0664837  
H4       H      0.965439000000     0.905105000000     0.106158000000     0.095984   
N1       N      0.884800000000     0.920400000000     0.066666666667    -0.0785366  
H1A      H      0.900042333333     0.931275000000     0.058467333333     0.0788916  
N2       N      0.895300000000     0.896733333333     0.085633333333    -0.028347   
N3       N      0.982833333333     0.934933333333     0.079133333333    -0.0205652  
C1       C      0.827300000000     0.949033333333     0.041900000000     1.27576    
C6       C      0.695400000000     0.963800000000     0.055800000000     1.36506    
C5       C      0.864266666667     0.860033333333     0.114933333333     1.27095    
C3       C      0.832866666667     0.903766666667     0.079800000000     0.369064   
H3       H      0.807926333333     0.901664666667     0.082007000000    -0.101506   
C10      C      0.696533333333     0.886366666667     0.142166666667     1.34304    
C8       C      0.710066666667     0.927366666667     0.103733333333     0.402285   
H8       H      0.736281333333     0.928946333333     0.109360333333    -0.106465   
C2       C      0.847233333333     0.924900000000     0.062066666667    -0.380729   
C9       C      0.687400000000     0.909466666667     0.117133333333    -0.426364   
C7       C      0.685433333333     0.942933333333     0.079600000000    -0.412841   
C4       C      0.863533333333     0.886266666667     0.093700000000    -0.396232   
Al1      Al     0.754940000000     0.855483333333     0.188330000000     7.33839    
O4       O      0.792223333333     0.883703333333     0.206180000000    -1.7452     
O2       O      0.783313333333     0.843493333333     0.158813333333    -3.20191    
H2       H      0.770537000000     0.842522666667     0.137336666667     0.821141   
O7       O      0.729186666667     0.870356666667     0.219596666667    -1.78188    
O1       O      0.717630000000     0.828273333333     0.172913333333    -3.3935     
H1       H      0.725779333333     0.809612666667     0.167652333333     0.876777   
O5       O      0.889506666667     0.992463333333     0.281483333333    -1.6361     
O9       O      0.730380000000     0.948696666667     0.324240000000    -1.72697    
O3       O      0.846816666667     0.866260000000     0.195966666667    -1.69366    
O6       O      0.839296666667     0.974406666667     0.298366666667    -1.60817    
O10      O      0.669636666667     0.963010000000     0.312676666667    -1.80704    
O8       O      0.669736666667     0.853760000000     0.206523333333    -1.87212    
N4       N      0.984700000000     0.919066666667     0.268466666667    -0.0682216  
H4       H      0.965439000000     0.928228333333     0.272824666667     0.0976502  
N1       N      0.884800000000     0.912933333333     0.233333333333    -0.0767297  
H1A      H      0.900042333333     0.902058333333     0.225134000000     0.0750378  
N2       N      0.895300000000     0.936600000000     0.252300000000    -0.0287213  
N3       N      0.982833333333     0.898400000000     0.245800000000    -0.021138   
C1       C      0.827300000000     0.884300000000     0.208566666667     1.29042    
C6       C      0.695400000000     0.869533333333     0.222466666667     1.38325    
C5       C      0.864266666667     0.973300000000     0.281600000000     1.22471    
C3       C      0.832866666667     0.929566666667     0.246466666667     0.361541   
H3       H      0.807926333333     0.931668666667     0.248673666667    -0.0964152  
C10      C      0.696533333333     0.946966666667     0.308833333333     1.32595    
C8       C      0.710066666667     0.905966666667     0.270400000000     0.402977   
H8       H      0.736281333333     0.904387000000     0.276027000000    -0.109875   
C2       C      0.847233333333     0.908433333333     0.228733333333    -0.384937   
C9       C      0.687400000000     0.923866666667     0.283800000000    -0.421003   
C7       C      0.685433333333     0.890400000000     0.246266666667    -0.422863   
C4       C      0.863533333333     0.947066666667     0.260366666667    -0.376791   
Al1      Al     0.911726666667     0.688816666667     0.311670000000     7.33005    
O4       O      0.874443333333     0.717036666667     0.293820000000    -1.74592    
O2       O      0.883353333333     0.676826666667     0.007853333333    -3.20036    
H2       H      0.896129666667     0.675856000000     0.029330000000     0.821355   
O7       O      0.937480000000     0.703690000000     0.280403333333    -1.7778     
O1       O      0.949036666667     0.994940000000     0.327086666667    -3.19866    
H1       H      0.940887333333     0.976279333333     0.332347666667     0.841117   
O5       O      0.777160000000     0.825796666667     0.218516666667    -1.72953    
O9       O      0.936286666667     0.782030000000     0.175760000000    -1.71164    
O3       O      0.819850000000     0.699593333333     0.304033333333    -1.69494    
O6       O      0.827370000000     0.807740000000     0.201633333333    -1.69558    
O10      O      0.997030000000     0.796343333333     0.187323333333    -1.86896    
O8       O      0.996930000000     0.687093333333     0.293476666667    -1.85298    
N4       N      0.681966666667     0.752400000000     0.231533333333    -0.0722966  
H4       H      0.701227666667     0.761561666667     0.227175333333     0.0928343  
N1       N      0.781866666667     0.746266666667     0.266666666667    -0.0764029  
H1A      H      0.766624333333     0.735391666667     0.274866000000     0.0720294  
N2       N      0.771366666667     0.769933333333     0.247700000000    -0.030373   
N3       N      0.683833333333     0.731733333333     0.254200000000    -0.0289119  
C1       C      0.839366666667     0.717633333333     0.291433333333     1.29119    
C6       C      0.971266666667     0.702866666667     0.277533333333     1.37396    
C5       C      0.802400000000     0.806633333333     0.218400000000     1.27163    
C3       C      0.833800000000     0.762900000000     0.253533333333     0.372245   
H3       H      0.858740333333     0.765002000000     0.251326333333    -0.104077   
C10      C      0.970133333333     0.780300000000     0.191166666667     1.334      
C8       C      0.956600000000     0.739300000000     0.229600000000     0.395667   
H8       H      0.930385333333     0.737720333333     0.223973000000    -0.108379   
C2       C      0.819433333333     0.741766666667     0.271266666667    -0.391914   
C9       C      0.979266666667     0.757200000000     0.216200000000    -0.417388   
C7       C      0.981233333333     0.723733333333     0.253733333333    -0.411982   
C4       C      0.803133333333     0.780400000000     0.239633333333    -0.399183   
Al2      Al     0.833333333333     0.833333333333     0.500000000000     7.12235    
Al1      Al     0.911726666667     0.811183333333     0.478336666667     7.3303     
Al3      Al     0.666666666667     0.833333333333     0.500000000000     7.92305    
O4       O      0.874443333333     0.782963333333     0.460486666667    -1.746      
O2       O      0.883353333333     0.823173333333     0.507853333333    -3.20066    
H2       H      0.896129666667     0.824144000000     0.529330000000     0.821552   
O7       O      0.937480000000     0.796310000000     0.447070000000    -1.7779     
O1       O      0.949036666667     0.838393333333     0.493753333333    -3.37477    
H1       H      0.940887333333     0.857054000000     0.499014333333     0.875496   
O5       O      0.777160000000     0.674203333333     0.385183333333    -1.72941    
O9       O      0.936286666667     0.717970000000     0.342426666667    -1.71158    
O3       O      0.819850000000     0.800406666667     0.470700000000    -1.69501    
O6       O      0.827370000000     0.692260000000     0.368300000000    -1.69554    
O10      O      0.997030000000     0.703656666667     0.353990000000    -1.86882    
O8       O      0.996930000000     0.812906666667     0.460143333333    -1.85319    
N4       N      0.681966666667     0.747600000000     0.398200000000    -0.0723032  
H4       H      0.701227666667     0.738438333333     0.393842000000     0.092846   
N1       N      0.781866666667     0.753733333333     0.433333333333    -0.0763979  
H1A      H      0.766624333333     0.764608333333     0.441532666667     0.0719986  
N2       N      0.771366666667     0.730066666667     0.414366666667    -0.0303513  
N3       N      0.683833333333     0.768266666667     0.420866666667    -0.0289336  
C1       C      0.839366666667     0.782366666667     0.458100000000     1.29117    
C6       C      0.971266666667     0.797133333333     0.444200000000     1.37402    
C5       C      0.802400000000     0.693366666667     0.385066666667     1.27168    
C3       C      0.833800000000     0.737100000000     0.420200000000     0.372247   
H3       H      0.858740333333     0.734998000000     0.417993000000    -0.104064   
C10      C      0.970133333333     0.719700000000     0.357833333333     1.33395    
C8       C      0.956600000000     0.760700000000     0.396266666667     0.395675   
H8       H      0.930385333333     0.762279666667     0.390639666667    -0.108413   
C2       C      0.819433333333     0.758233333333     0.437933333333    -0.391947   
C9       C      0.979266666667     0.742800000000     0.382866666667    -0.417375   
C7       C      0.981233333333     0.776266666667     0.420400000000    -0.412058   
C4       C      0.803133333333     0.719600000000     0.406300000000    -0.399145   
Al2      Al     0.833333333333     0.666666666667     0.333333333333     7.12253    
Al1      Al     0.754940000000     0.977850000000     0.354996666667     7.48461    
Al3      Al     0.666666666667     0.666666666667     0.333333333333     7.9227     
O4       O      0.792223333333     0.949630000000     0.372846666667    -1.75763    
O2       O      0.783313333333     0.989840000000     0.658813333333    -3.13778    
H2       H      0.770537000000     0.990810666667     0.637336666667     0.821735   
O7       O      0.729186666667     0.962976666667     0.386263333333    -1.78524    
O1       O      0.717630000000     0.671726666667     0.339580000000    -3.39333    
H1       H      0.725779333333     0.690387333333     0.334319000000     0.876794   
O5       O      0.889506666667     0.840870000000     0.448150000000    -1.72751    
O9       O      0.730380000000     0.884636666667     0.490906666667    -1.71434    
O3       O      0.846816666667     0.967073333333     0.362633333333    -1.61763    
O6       O      0.839296666667     0.858926666667     0.465033333333    -1.6943     
O10      O      0.669636666667     0.870323333333     0.479343333333    -1.88769    
O8       O      0.669736666667     0.979573333333     0.373190000000    -1.78558    
N4       N      0.984700000000     0.914266666667     0.435133333333    -0.0664559  
H4       H      0.965439000000     0.905105000000     0.439491333333     0.096015   
N1       N      0.884800000000     0.920400000000     0.400000000000    -0.0784596  
H1A      H      0.900042333333     0.931275000000     0.391800666667     0.0790338  
N2       N      0.895300000000     0.896733333333     0.418966666667    -0.0282735  
N3       N      0.982833333333     0.934933333333     0.412466666667    -0.020392   
C1       C      0.827300000000     0.949033333333     0.375233333333     1.27718    
C6       C      0.695400000000     0.963800000000     0.389133333333     1.3666     
C5       C      0.864266666667     0.860033333333     0.448266666667     1.271      
C3       C      0.832866666667     0.903766666667     0.413133333333     0.369339   
H3       H      0.807926333333     0.901664666667     0.415340333333    -0.101512   
C10      C      0.696533333333     0.886366666667     0.475500000000     1.34309    
C8       C      0.710066666667     0.927366666667     0.437066666667     0.402587   
H8       H      0.736281333333     0.928946333333     0.442693666667    -0.106564   
C2       C      0.847233333333     0.924900000000     0.395400000000    -0.380992   
C9       C      0.687400000000     0.909466666667     0.450466666667    -0.426435   
C7       C      0.685433333333     0.942933333333     0.412933333333    -0.4132     
C4       C      0.863533333333     0.886266666667     0.427033333333    -0.396242   
Al1      Al     0.754940000000     0.855483333333     0.521663333333     7.33838    
O4       O      0.792223333333     0.883703333333     0.539513333333    -1.74521    
O2       O      0.783313333333     0.843493333333     0.492146666667    -3.20192    
H2       H      0.770537000000     0.842522666667     0.470670000000     0.821186   
O7       O      0.729186666667     0.870356666667     0.552930000000    -1.78189    
O1       O      0.717630000000     0.828273333333     0.506246666667    -3.39349    
H1       H      0.725779333333     0.809612666667     0.500985666667     0.876775   
O5       O      0.889506666667     0.992463333333     0.614816666667    -1.6361     
O9       O      0.730380000000     0.948696666667     0.657573333333    -1.72697    
O3       O      0.846816666667     0.866260000000     0.529300000000    -1.69367    
O6       O      0.839296666667     0.974406666667     0.631700000000    -1.60817    
O10      O      0.669636666667     0.963010000000     0.646010000000    -1.80704    
O8       O      0.669736666667     0.853760000000     0.539856666667    -1.87213    
N4       N      0.984700000000     0.919066666667     0.601800000000    -0.068224   
H4       H      0.965439000000     0.928228333333     0.606158000000     0.0976402  
N1       N      0.884800000000     0.912933333333     0.566666666667    -0.0767313  
H1A      H      0.900042333333     0.902058333333     0.558467333333     0.075025   
N2       N      0.895300000000     0.936600000000     0.585633333333    -0.0287312  
N3       N      0.982833333333     0.898400000000     0.579133333333    -0.0211475  
C1       C      0.827300000000     0.884300000000     0.541900000000     1.29041    
C6       C      0.695400000000     0.869533333333     0.555800000000     1.38325    
C5       C      0.864266666667     0.973300000000     0.614933333333     1.22469    
C3       C      0.832866666667     0.929566666667     0.579800000000     0.361537   
H3       H      0.807926333333     0.931668666667     0.582007000000    -0.096427   
C10      C      0.696533333333     0.946966666667     0.642166666667     1.32594    
C8       C      0.710066666667     0.905966666667     0.603733333333     0.402973   
H8       H      0.736281333333     0.904387000000     0.609360333333    -0.109885   
C2       C      0.847233333333     0.908433333333     0.562066666667    -0.384956   
C9       C      0.687400000000     0.923866666667     0.617133333333    -0.421015   
C7       C      0.685433333333     0.890400000000     0.579600000000    -0.422877   
C4       C      0.863533333333     0.947066666667     0.593700000000    -0.376804   
Al1      Al     0.911726666667     0.688816666667     0.645003333333     7.33       
O4       O      0.874443333333     0.717036666667     0.627153333333    -1.74592    
O2       O      0.883353333333     0.676826666667     0.341186666667    -3.20071    
H2       H      0.896129666667     0.675856000000     0.362663333333     0.821558   
O7       O      0.937480000000     0.703690000000     0.613736666667    -1.7778     
O1       O      0.949036666667     0.994940000000     0.660420000000    -3.19864    
H1       H      0.940887333333     0.976279333333     0.665681000000     0.841106   
O5       O      0.777160000000     0.825796666667     0.551850000000    -1.72954    
O9       O      0.936286666667     0.782030000000     0.509093333333    -1.71165    
O3       O      0.819850000000     0.699593333333     0.637366666667    -1.69494    
O6       O      0.827370000000     0.807740000000     0.534966666667    -1.6956     
O10      O      0.997030000000     0.796343333333     0.520656666667    -1.86897    
O8       O      0.996930000000     0.687093333333     0.626810000000    -1.85298    
N4       N      0.681966666667     0.752400000000     0.564866666667    -0.0722982  
H4       H      0.701227666667     0.761561666667     0.560508666667     0.0928228  
N1       N      0.781866666667     0.746266666667     0.600000000000    -0.076405   
H1A      H      0.766624333333     0.735391666667     0.608199333333     0.0720187  
N2       N      0.771366666667     0.769933333333     0.581033333333    -0.0303817  
N3       N      0.683833333333     0.731733333333     0.587533333333    -0.0289216  
C1       C      0.839366666667     0.717633333333     0.624766666667     1.29118    
C6       C      0.971266666667     0.702866666667     0.610866666667     1.37395    
C5       C      0.802400000000     0.806633333333     0.551733333333     1.27163    
C3       C      0.833800000000     0.762900000000     0.586866666667     0.37224    
H3       H      0.858740333333     0.765002000000     0.584659666667    -0.104088   
C10      C      0.970133333333     0.780300000000     0.524500000000     1.33399    
C8       C      0.956600000000     0.739300000000     0.562933333333     0.395664   
H8       H      0.930385333333     0.737720333333     0.557306333333    -0.108393   
C2       C      0.819433333333     0.741766666667     0.604600000000    -0.391928   
C9       C      0.979266666667     0.757200000000     0.549533333333    -0.417405   
C7       C      0.981233333333     0.723733333333     0.587066666667    -0.411996   
C4       C      0.803133333333     0.780400000000     0.572966666667    -0.399198   
Al2      Al     0.833333333333     0.833333333333     0.833333333333     7.12235    
Al1      Al     0.911726666667     0.811183333333     0.811670000000     7.33029    
Al3      Al     0.666666666667     0.833333333333     0.833333333333     7.92301    
O4       O      0.874443333333     0.782963333333     0.793820000000    -1.74601    
O2       O      0.883353333333     0.823173333333     0.841186666667    -3.20066    
H2       H      0.896129666667     0.824144000000     0.862663333333     0.821602   
O7       O      0.937480000000     0.796310000000     0.780403333333    -1.77791    
O1       O      0.949036666667     0.838393333333     0.827086666667    -3.37477    
H1       H      0.940887333333     0.857054000000     0.832347666667     0.875496   
O5       O      0.777160000000     0.674203333333     0.718516666667    -1.7294     
O9       O      0.936286666667     0.717970000000     0.675760000000    -1.71158    
O3       O      0.819850000000     0.800406666667     0.804033333333    -1.69502    
O6       O      0.827370000000     0.692260000000     0.701633333333    -1.69553    
O10      O      0.997030000000     0.703656666667     0.687323333333    -1.86881    
O8       O      0.996930000000     0.812906666667     0.793476666667    -1.8532     
N4       N      0.681966666667     0.747600000000     0.731533333333    -0.0723052  
H4       H      0.701227666667     0.738438333333     0.727175333333     0.0928373  
N1       N      0.781866666667     0.753733333333     0.766666666667    -0.0763991  
H1A      H      0.766624333333     0.764608333333     0.774866000000     0.0719883  
N2       N      0.771366666667     0.730066666667     0.747700000000    -0.030359   
N3       N      0.683833333333     0.768266666667     0.754200000000    -0.028942   
C1       C      0.839366666667     0.782366666667     0.791433333333     1.29116    
C6       C      0.971266666667     0.797133333333     0.777533333333     1.37401    
C5       C      0.802400000000     0.693366666667     0.718400000000     1.27167    
C3       C      0.833800000000     0.737100000000     0.753533333333     0.372244   
H3       H      0.858740333333     0.734998000000     0.751326333333    -0.104074   
C10      C      0.970133333333     0.719700000000     0.691166666667     1.33394    
C8       C      0.956600000000     0.760700000000     0.729600000000     0.395674   
H8       H      0.930385333333     0.762279666667     0.723973000000    -0.108424   
C2       C      0.819433333333     0.758233333333     0.771266666667    -0.391962   
C9       C      0.979266666667     0.742800000000     0.716200000000    -0.41739    
C7       C      0.981233333333     0.776266666667     0.753733333333    -0.412075   
C4       C      0.803133333333     0.719600000000     0.739633333333    -0.399155   
Al2      Al     0.833333333333     0.666666666667     0.666666666667     7.12248    
Al1      Al     0.754940000000     0.977850000000     0.688330000000     7.48456    
Al3      Al     0.666666666667     0.666666666667     0.666666666667     7.92264    
O4       O      0.792223333333     0.949630000000     0.706180000000    -1.75763    
O2       O      0.783313333333     0.989840000000     0.992146666667    -3.13242    
H2       H      0.770537000000     0.990810666667     0.970670000000     0.820723   
O7       O      0.729186666667     0.962976666667     0.719596666667    -1.78524    
O1       O      0.717630000000     0.671726666667     0.672913333333    -3.39331    
H1       H      0.725779333333     0.690387333333     0.667652333333     0.876783   
O5       O      0.889506666667     0.840870000000     0.781483333333    -1.72752    
O9       O      0.730380000000     0.884636666667     0.824240000000    -1.71434    
O3       O      0.846816666667     0.967073333333     0.695966666667    -1.61763    
O6       O      0.839296666667     0.858926666667     0.798366666667    -1.69431    
O10      O      0.669636666667     0.870323333333     0.812676666667    -1.88769    
O8       O      0.669736666667     0.979573333333     0.706523333333    -1.78558    
N4       N      0.984700000000     0.914266666667     0.768466666667    -0.0664595  
H4       H      0.965439000000     0.905105000000     0.772824666667     0.0960057  
N1       N      0.884800000000     0.920400000000     0.733333333333    -0.0784615  
H1A      H      0.900042333333     0.931275000000     0.725134000000     0.0790242  
N2       N      0.895300000000     0.896733333333     0.752300000000    -0.0282816  
N3       N      0.982833333333     0.934933333333     0.745800000000    -0.0204018  
C1       C      0.827300000000     0.949033333333     0.708566666667     1.27717    
C6       C      0.695400000000     0.963800000000     0.722466666667     1.36659    
C5       C      0.864266666667     0.860033333333     0.781600000000     1.271      
C3       C      0.832866666667     0.903766666667     0.746466666667     0.369335   
H3       H      0.807926333333     0.901664666667     0.748673666667    -0.101522   
C10      C      0.696533333333     0.886366666667     0.808833333333     1.34308    
C8       C      0.710066666667     0.927366666667     0.770400000000     0.402584   
H8       H      0.736281333333     0.928946333333     0.776027000000    -0.106572   
C2       C      0.847233333333     0.924900000000     0.728733333333    -0.381004   
C9       C      0.687400000000     0.909466666667     0.783800000000    -0.426446   
C7       C      0.685433333333     0.942933333333     0.746266666667    -0.41321    
C4       C      0.863533333333     0.886266666667     0.760366666667    -0.396255   
Al1      Al     0.754940000000     0.855483333333     0.854996666667     7.33835    
O4       O      0.792223333333     0.883703333333     0.872846666667    -1.74517    
O2       O      0.783313333333     0.843493333333     0.825480000000    -3.20192    
H2       H      0.770537000000     0.842522666667     0.804003333333     0.821176   
O7       O      0.729186666667     0.870356666667     0.886263333333    -1.78181    
O1       O      0.717630000000     0.828273333333     0.839580000000    -3.39347    
H1       H      0.725779333333     0.809612666667     0.834319000000     0.876765   
O5       O      0.889506666667     0.992463333333     0.948150000000    -1.63652    
O9       O      0.730380000000     0.948696666667     0.990906666667    -1.72412    
O3       O      0.846816666667     0.866260000000     0.862633333333    -1.69364    
O6       O      0.839296666667     0.974406666667     0.965033333333    -1.6058     
O10      O      0.669636666667     0.963010000000     0.979343333333    -1.8039     
O8       O      0.669736666667     0.853760000000     0.873190000000    -1.87206    
N4       N      0.984700000000     0.919066666667     0.935133333333    -0.0683582  
H4       H      0.965439000000     0.928228333333     0.939491333333     0.0977862  
N1       N      0.884800000000     0.912933333333     0.900000000000    -0.0767299  
H1A      H      0.900042333333     0.902058333333     0.891800666667     0.0750688  
N2       N      0.895300000000     0.936600000000     0.918966666667    -0.0286942  
N3       N      0.982833333333     0.898400000000     0.912466666667    -0.0211158  
C1       C      0.827300000000     0.884300000000     0.875233333333     1.2904     
C6       C      0.695400000000     0.869533333333     0.889133333333     1.3832     
C5       C      0.864266666667     0.973300000000     0.948266666667     1.22428    
C3       C      0.832866666667     0.929566666667     0.913133333333     0.361419   
H3       H      0.807926333333     0.931668666667     0.915340333333    -0.0962999  
C10      C      0.696533333333     0.946966666667     0.975500000000     1.32435    
C8       C      0.710066666667     0.905966666667     0.937066666667     0.402571   
H8       H      0.736281333333     0.904387000000     0.942693666667    -0.10954    
C2       C      0.847233333333     0.908433333333     0.895400000000    -0.384831   
C9       C      0.687400000000     0.923866666667     0.950466666667    -0.420205   
C7       C      0.685433333333     0.890400000000     0.912933333333    -0.422629   
C4       C      0.863533333333     0.947066666667     0.927033333333    -0.376517   
Al1      Al     0.911726666667     0.688816666667     0.978336666667     7.33464    
O4       O      0.874443333333     0.717036666667     0.960486666667    -1.74601    
O2       O      0.883353333333     0.676826666667     0.674520000000    -3.20069    
H2       H      0.896129666667     0.675856000000     0.695996666667     0.821546   
O7       O      0.937480000000     0.703690000000     0.947070000000    -1.77806    
O1       O      0.949036666667     0.994940000000     0.993753333333    -3.19639    
H1       H      0.940887333333     0.976279333333     0.999014333333     0.841133   
O5       O      0.777160000000     0.825796666667     0.885183333333    -1.72945    
O9       O      0.936286666667     0.782030000000     0.842426666667    -1.71164    
O3       O      0.819850000000     0.699593333333     0.970700000000    -1.69249    
O6       O      0.827370000000     0.807740000000     0.868300000000    -1.69557    
O10      O      0.997030000000     0.796343333333     0.853990000000    -1.86895    
O8       O      0.996930000000     0.687093333333     0.960143333333    -1.85032    
N4       N      0.681966666667     0.752400000000     0.898200000000    -0.0722891  
H4       H      0.701227666667     0.761561666667     0.893842000000     0.0928783  
N1       N      0.781866666667     0.746266666667     0.933333333333    -0.0764736  
H1A      H      0.766624333333     0.735391666667     0.941532666667     0.0722789  
N2       N      0.771366666667     0.769933333333     0.914366666667    -0.0302985  
N3       N      0.683833333333     0.731733333333     0.920866666667    -0.0288186  
C1       C      0.839366666667     0.717633333333     0.958100000000     1.29073    
C6       C      0.971266666667     0.702866666667     0.944200000000     1.37344    
C5       C      0.802400000000     0.806633333333     0.885066666667     1.27163    
C3       C      0.833800000000     0.762900000000     0.920200000000     0.372139   
H3       H      0.858740333333     0.765002000000     0.917993000000    -0.103933   
C10      C      0.970133333333     0.780300000000     0.857833333333     1.33398    
C8       C      0.956600000000     0.739300000000     0.896266666667     0.395578   
H8       H      0.930385333333     0.737720333333     0.890639666667    -0.108328   
C2       C      0.819433333333     0.741766666667     0.937933333333    -0.391521   
C9       C      0.979266666667     0.757200000000     0.882866666667    -0.417326   
C7       C      0.981233333333     0.723733333333     0.920400000000    -0.411672   
C4       C      0.803133333333     0.780400000000     0.906300000000    -0.399062   


