data_CAU-10-H

_audit_creation_method RASPA-1.0
_audit_creation_date 2025-7-10
_audit_author_name ''

_citation_id                 1
_citation_year               10.31635/ccschem.024.202404102

_cell_length_a    42.5882
_cell_length_b    42.5882
_cell_length_c    32.0784
_cell_angle_alpha 90
_cell_angle_beta  90
_cell_angle_gamma 90
_cell_volume      58182.4

_symmetry_cell_setting          tetragonal
_symmetry_space_group_name_Hall 'P 1'
_symmetry_space_group_name_H-M  'P 1'
_symmetry_Int_Tables_number     1

_symmetry_equiv_pos_as_xyz 'x,y,z'

loop_
_atom_site_label
_atom_site_type_symbol
_atom_site_fract_x
_atom_site_fract_y
_atom_site_fract_z
_atom_site_charge
Al01     Al     0.406870000000     0.377040000000     0.223266666667     5.95203    
O002     O      0.379705000000     0.375350000000     0.178766666667    -2.1512     
O003     O      0.415600000000     0.333250000000     0.218600000000    -1.42367    
O006     O      0.401850000000     0.420850000000     0.231133333333    -1.44476    
O1       O      0.440700000000     0.385850000000     0.183633333333    -1.37508    
O2       O      0.439200000000     0.380300000000     0.264600000000    -1.4507     
C2       C      0.442500000000     0.366400000000     0.298166666667     1.18292    
C4       C      0.441000000000     0.404100000000     0.153900000000     1.09097    
C1       C      0.471450000000     0.416050000000     0.137300000000    -0.438827   
C5       C      0.000000000000     0.372300000000     0.301500000000     0.574771   
C7       C      0.000000000000     0.361450000000     0.054366666667    -0.617276   
H7       H      0.000000000000     0.360297500000     0.083932333333     0.240122   
C3       C      0.000000000000     0.404450000000     0.155300000000     0.277908   
C6       C      0.471850000000     0.367700000000     0.322000000000    -0.649559   
C8       C      0.472350000000     0.440100000000     0.108966666667     0.286594   
H8       H      0.450000000000     0.448500000000     0.098333333333    -0.02946    
C9       C      0.472850000000     0.362350000000     0.032066666667     0.559229   
H9       H      0.453595000000     0.359233000000     0.046433000000    -0.148585   
C13      C      0.000000000000     0.451050000000     0.095500000000    -0.330674   
H13      H      0.000000000000     0.468000000000     0.073666666667     0.121079   
H5       H      0.000000000000     0.376000000000     0.273000000000    -0.146467   
Al01     Al     0.122960000000     0.156870000000     0.306600000000     5.95218    
O002     O      0.124650000000     0.129705000000     0.262100000000    -2.15146    
O003     O      0.166750000000     0.165600000000     0.301933333333    -1.42373    
O006     O      0.079150000000     0.151850000000     0.314466666667    -1.44484    
O1       O      0.114150000000     0.190700000000     0.266966666667    -1.37516    
O2       O      0.119700000000     0.189200000000     0.014600000000    -1.43339    
C2       C      0.133600000000     0.192500000000     0.048166666667     1.17694    
C4       C      0.095900000000     0.191000000000     0.237233333333     1.09095    
C1       C      0.083950000000     0.221450000000     0.220633333333    -0.438945   
C5       C      0.127700000000     0.250000000000     0.051500000000     0.570833   
C7       C      0.138550000000     0.250000000000     0.137700000000    -0.57259    
H7       H      0.139702500000     0.250000000000     0.167265666667     0.224778   
C3       C      0.095550000000     0.250000000000     0.238633333333     0.279331   
C6       C      0.132300000000     0.221850000000     0.072000000000    -0.642914   
C8       C      0.059900000000     0.222350000000     0.192300000000     0.286049   
H8       H      0.051500000000     0.200000000000     0.181666666667    -0.0302767  
C9       C      0.137650000000     0.222850000000     0.115400000000     0.511195   
H9       H      0.140767000000     0.203595000000     0.129766333333    -0.135285   
C13      C      0.048950000000     0.250000000000     0.178833333333    -0.328992   
H13      H      0.032000000000     0.250000000000     0.157000000000     0.119356   
H5       H      0.124000000000     0.250000000000     0.023000000000    -0.141497   
Al01     Al     0.343130000000     0.372960000000     0.056600000000     5.94311    
O002     O      0.370295000000     0.374650000000     0.012100000000    -2.13364    
O003     O      0.334400000000     0.416750000000     0.051933333333    -1.42039    
O006     O      0.348150000000     0.329150000000     0.064466666667    -1.43945    
O1       O      0.309300000000     0.364150000000     0.016966666667    -1.35826    
O2       O      0.310800000000     0.369700000000     0.097933333333    -1.44851    
C2       C      0.307500000000     0.383600000000     0.131500000000     1.18195    
C4       C      0.309000000000     0.345900000000     0.320566666667     1.09098    
C1       C      0.278550000000     0.333950000000     0.303966666667    -0.43894    
C5       C      0.250000000000     0.377700000000     0.134833333333     0.575078   
C7       C      0.250000000000     0.388550000000     0.221033333333    -0.5766     
H7       H      0.250000000000     0.389702500000     0.250599000000     0.225982   
C3       C      0.250000000000     0.345550000000     0.321966666667     0.279345   
C6       C      0.278150000000     0.382300000000     0.155333333333    -0.648325   
C8       C      0.277650000000     0.309900000000     0.275633333333     0.286072   
H8       H      0.300000000000     0.301500000000     0.265000000000    -0.0302686  
C9       C      0.277150000000     0.387650000000     0.198733333333     0.514697   
H9       H      0.296405000000     0.390767000000     0.213099666667    -0.136742   
C13      C      0.250000000000     0.298950000000     0.262166666667    -0.328949   
H13      H      0.250000000000     0.282000000000     0.240333333333     0.119317   
H5       H      0.250000000000     0.374000000000     0.106333333333    -0.145148   
Al01     Al     0.127040000000     0.093130000000     0.139933333333     5.95089    
O002     O      0.125350000000     0.120295000000     0.095433333333    -2.1491     
O003     O      0.083250000000     0.084400000000     0.135266666667    -1.42315    
O006     O      0.170850000000     0.098150000000     0.147800000000    -1.4443     
O1       O      0.135850000000     0.059300000000     0.100300000000    -1.37371    
O2       O      0.130300000000     0.060800000000     0.181266666667    -1.45056    
C2       C      0.116400000000     0.057500000000     0.214833333333     1.18276    
C4       C      0.154100000000     0.059000000000     0.070566666667     1.08838    
C1       C      0.166050000000     0.028550000000     0.053966666667    -0.431047   
C5       C      0.122300000000     0.000000000000     0.218166666667     0.574659   
C7       C      0.111450000000     0.000000000000     0.304366666667    -0.579698   
H7       H      0.110297500000     0.000000000000     0.000599000000     0.25101    
C3       C      0.154450000000     0.000000000000     0.071966666667     0.273889   
C6       C      0.117700000000     0.028150000000     0.238666666667    -0.64955    
C8       C      0.190100000000     0.027650000000     0.025633333333     0.272477   
H8       H      0.198500000000     0.050000000000     0.015000000000    -0.0234909  
C9       C      0.112350000000     0.027150000000     0.282066666667     0.516123   
H9       H      0.109233000000     0.046405000000     0.296433000000    -0.137322   
C13      C      0.201050000000     0.000000000000     0.012166666667    -0.299345   
H13      H      0.218000000000     0.000000000000     0.323666666667     0.119324   
H5       H      0.126000000000     0.000000000000     0.189666666667    -0.146375   
Al01     Al     0.093130000000     0.377040000000     0.223266666667     5.95197    
O002     O      0.120295000000     0.375350000000     0.178766666667    -2.15119    
O003     O      0.084400000000     0.333250000000     0.218600000000    -1.4237     
O006     O      0.098150000000     0.420850000000     0.231133333333    -1.44478    
O1       O      0.059300000000     0.385850000000     0.183633333333    -1.37515    
O2       O      0.060800000000     0.380300000000     0.264600000000    -1.45075    
C2       C      0.057500000000     0.366400000000     0.298166666667     1.18286    
C4       C      0.059000000000     0.404100000000     0.153900000000     1.09096    
C1       C      0.028550000000     0.416050000000     0.137300000000    -0.438928   
C6       C      0.028150000000     0.367700000000     0.322000000000    -0.649612   
C8       C      0.027650000000     0.440100000000     0.108966666667     0.287198   
H8       H      0.050000000000     0.448500000000     0.098333333333    -0.0296772  
C9       C      0.027150000000     0.362350000000     0.032066666667     0.559763   
H9       H      0.046405000000     0.359233000000     0.046433000000    -0.148828   
Al01     Al     0.122960000000     0.343130000000     0.306600000000     5.95218    
O002     O      0.124650000000     0.370295000000     0.262100000000    -2.15146    
O003     O      0.166750000000     0.334400000000     0.301933333333    -1.42373    
O006     O      0.079150000000     0.348150000000     0.314466666667    -1.44484    
O1       O      0.114150000000     0.309300000000     0.266966666667    -1.37516    
O2       O      0.119700000000     0.310800000000     0.014600000000    -1.43337    
C2       C      0.133600000000     0.307500000000     0.048166666667     1.17693    
C4       C      0.095900000000     0.309000000000     0.237233333333     1.09095    
C1       C      0.083950000000     0.278550000000     0.220633333333    -0.438946   
C6       C      0.132300000000     0.278150000000     0.072000000000    -0.642913   
C8       C      0.059900000000     0.277650000000     0.192300000000     0.286049   
H8       H      0.051500000000     0.300000000000     0.181666666667    -0.0302792  
C9       C      0.137650000000     0.277150000000     0.115400000000     0.511194   
H9       H      0.140767000000     0.296405000000     0.129766333333    -0.135287   
Al01     Al     0.156870000000     0.372960000000     0.056600000000     5.94312    
O002     O      0.129705000000     0.374650000000     0.012100000000    -2.13367    
O003     O      0.165600000000     0.416750000000     0.051933333333    -1.42039    
O006     O      0.151850000000     0.329150000000     0.064466666667    -1.43945    
O1       O      0.190700000000     0.364150000000     0.016966666667    -1.35827    
O2       O      0.189200000000     0.369700000000     0.097933333333    -1.44851    
C2       C      0.192500000000     0.383600000000     0.131500000000     1.18195    
C4       C      0.191000000000     0.345900000000     0.320566666667     1.09098    
C1       C      0.221450000000     0.333950000000     0.303966666667    -0.438939   
C6       C      0.221850000000     0.382300000000     0.155333333333    -0.648324   
C8       C      0.222350000000     0.309900000000     0.275633333333     0.286073   
H8       H      0.200000000000     0.301500000000     0.265000000000    -0.0302661  
C9       C      0.222850000000     0.387650000000     0.198733333333     0.514697   
H9       H      0.203595000000     0.390767000000     0.213099666667    -0.136739   
Al01     Al     0.127040000000     0.406870000000     0.139933333333     5.95094    
O002     O      0.125350000000     0.379705000000     0.095433333333    -2.14911    
O003     O      0.083250000000     0.415600000000     0.135266666667    -1.42312    
O006     O      0.170850000000     0.401850000000     0.147800000000    -1.44428    
O1       O      0.135850000000     0.440700000000     0.100300000000    -1.37364    
O2       O      0.130300000000     0.439200000000     0.181266666667    -1.4505     
C2       C      0.116400000000     0.442500000000     0.214833333333     1.18281    
C4       C      0.154100000000     0.441000000000     0.070566666667     1.08838    
C1       C      0.166050000000     0.471450000000     0.053966666667    -0.430919   
C6       C      0.117700000000     0.471850000000     0.238666666667    -0.649498   
C8       C      0.190100000000     0.472350000000     0.025633333333     0.271819   
H8       H      0.198500000000     0.450000000000     0.015000000000    -0.023253   
C9       C      0.112350000000     0.472850000000     0.282066666667     0.515461   
H9       H      0.109233000000     0.453595000000     0.296433000000    -0.137044   
Al01     Al     0.156870000000     0.127040000000     0.056600000000     5.94314    
O002     O      0.129705000000     0.125350000000     0.012100000000    -2.1337     
O003     O      0.165600000000     0.083250000000     0.051933333333    -1.42042    
O006     O      0.151850000000     0.170850000000     0.064466666667    -1.43946    
O1       O      0.190700000000     0.135850000000     0.016966666667    -1.3583     
O2       O      0.189200000000     0.130300000000     0.097933333333    -1.44852    
C2       C      0.192500000000     0.116400000000     0.131500000000     1.18195    
C4       C      0.191000000000     0.154100000000     0.320566666667     1.09098    
C1       C      0.221450000000     0.166050000000     0.303966666667    -0.438937   
C5       C      0.250000000000     0.122300000000     0.134833333333     0.575075   
C7       C      0.250000000000     0.111450000000     0.221033333333    -0.576634   
H7       H      0.250000000000     0.110297500000     0.250599000000     0.225967   
C3       C      0.250000000000     0.154450000000     0.321966666667     0.27934    
C6       C      0.221850000000     0.117700000000     0.155333333333    -0.648351   
C8       C      0.222350000000     0.190100000000     0.275633333333     0.286075   
H8       H      0.200000000000     0.198500000000     0.265000000000    -0.0302647  
C9       C      0.222850000000     0.112350000000     0.198733333333     0.514683   
H9       H      0.203595000000     0.109233000000     0.213099666667    -0.136759   
C13      C      0.250000000000     0.201050000000     0.262166666667    -0.328947   
H13      H      0.250000000000     0.218000000000     0.240333333333     0.119318   
H5       H      0.250000000000     0.126000000000     0.106333333333    -0.145159   
Al01     Al     0.372960000000     0.406870000000     0.139933333333     5.95094    
O002     O      0.374650000000     0.379705000000     0.095433333333    -2.1491     
O003     O      0.416750000000     0.415600000000     0.135266666667    -1.4231     
O006     O      0.329150000000     0.401850000000     0.147800000000    -1.44428    
O1       O      0.364150000000     0.440700000000     0.100300000000    -1.37364    
O2       O      0.369700000000     0.439200000000     0.181266666667    -1.4505     
C2       C      0.383600000000     0.442500000000     0.214833333333     1.18282    
C4       C      0.345900000000     0.441000000000     0.070566666667     1.08838    
C1       C      0.333950000000     0.471450000000     0.053966666667    -0.430917   
C5       C      0.377700000000     0.000000000000     0.218166666667     0.574661   
C7       C      0.388550000000     0.000000000000     0.304366666667    -0.57967    
H7       H      0.389702500000     0.000000000000     0.000599000000     0.251063   
C3       C      0.345550000000     0.000000000000     0.071966666667     0.27389    
C6       C      0.382300000000     0.471850000000     0.238666666667    -0.649473   
C8       C      0.309900000000     0.472350000000     0.025633333333     0.271813   
H8       H      0.301500000000     0.450000000000     0.015000000000    -0.0232516  
C9       C      0.387650000000     0.472850000000     0.282066666667     0.515475   
H9       H      0.390767000000     0.453595000000     0.296433000000    -0.137025   
C13      C      0.298950000000     0.000000000000     0.012166666667    -0.299336   
H13      H      0.282000000000     0.000000000000     0.323666666667     0.119323   
H5       H      0.374000000000     0.000000000000     0.189666666667    -0.146366   
Al01     Al     0.093130000000     0.122960000000     0.223266666667     5.95197    
O002     O      0.120295000000     0.124650000000     0.178766666667    -2.15118    
O003     O      0.084400000000     0.166750000000     0.218600000000    -1.42369    
O006     O      0.098150000000     0.079150000000     0.231133333333    -1.44482    
O1       O      0.059300000000     0.114150000000     0.183633333333    -1.37515    
O2       O      0.060800000000     0.119700000000     0.264600000000    -1.45078    
C2       C      0.057500000000     0.133600000000     0.298166666667     1.18287    
C4       C      0.059000000000     0.095900000000     0.153900000000     1.09093    
C1       C      0.028550000000     0.083950000000     0.137300000000    -0.438931   
C5       C      0.000000000000     0.127700000000     0.301500000000     0.574769   
C7       C      0.000000000000     0.138550000000     0.054366666667    -0.617231   
H7       H      0.000000000000     0.139702500000     0.083932333333     0.240111   
C3       C      0.000000000000     0.095550000000     0.155300000000     0.277848   
C6       C      0.028150000000     0.132300000000     0.322000000000    -0.649638   
C8       C      0.027650000000     0.059900000000     0.108966666667     0.287066   
H8       H      0.050000000000     0.051500000000     0.098333333333    -0.0297921  
C9       C      0.027150000000     0.137650000000     0.032066666667     0.559704   
H9       H      0.046405000000     0.140767000000     0.046433000000    -0.148813   
C13      C      0.000000000000     0.048950000000     0.095500000000    -0.330691   
H13      H      0.000000000000     0.032000000000     0.073666666667     0.120787   
H5       H      0.000000000000     0.124000000000     0.273000000000    -0.146491   
Al01     Al     0.377040000000     0.343130000000     0.306600000000     5.95218    
O002     O      0.375350000000     0.370295000000     0.262100000000    -2.15148    
O003     O      0.333250000000     0.334400000000     0.301933333333    -1.42374    
O006     O      0.420850000000     0.348150000000     0.314466666667    -1.4448     
O1       O      0.385850000000     0.309300000000     0.266966666667    -1.37516    
O2       O      0.380300000000     0.310800000000     0.014600000000    -1.43332    
C2       C      0.366400000000     0.307500000000     0.048166666667     1.17692    
C4       C      0.404100000000     0.309000000000     0.237233333333     1.09098    
C1       C      0.416050000000     0.278550000000     0.220633333333    -0.438943   
C5       C      0.372300000000     0.250000000000     0.051500000000     0.57083    
C7       C      0.361450000000     0.250000000000     0.137700000000    -0.572569   
H7       H      0.360297500000     0.250000000000     0.167265666667     0.224766   
C3       C      0.404450000000     0.250000000000     0.238633333333     0.279394   
C6       C      0.367700000000     0.278150000000     0.072000000000    -0.642878   
C8       C      0.440100000000     0.277650000000     0.192300000000     0.286178   
H8       H      0.448500000000     0.300000000000     0.181666666667    -0.0301654  
C9       C      0.362350000000     0.277150000000     0.115400000000     0.511181   
H9       H      0.359233000000     0.296405000000     0.129766333333    -0.135282   
C13      C      0.451050000000     0.250000000000     0.178833333333    -0.32897    
H13      H      0.468000000000     0.250000000000     0.157000000000     0.119644   
H5       H      0.376000000000     0.250000000000     0.023000000000    -0.141466   
Al01     Al     0.343130000000     0.127040000000     0.056600000000     5.94312    
O002     O      0.370295000000     0.125350000000     0.012100000000    -2.13367    
O003     O      0.334400000000     0.083250000000     0.051933333333    -1.42042    
O006     O      0.348150000000     0.170850000000     0.064466666667    -1.43945    
O1       O      0.309300000000     0.135850000000     0.016966666667    -1.35829    
O2       O      0.310800000000     0.130300000000     0.097933333333    -1.44852    
C2       C      0.307500000000     0.116400000000     0.131500000000     1.18195    
C4       C      0.309000000000     0.154100000000     0.320566666667     1.09098    
C1       C      0.278550000000     0.166050000000     0.303966666667    -0.438939   
C6       C      0.278150000000     0.117700000000     0.155333333333    -0.648352   
C8       C      0.277650000000     0.190100000000     0.275633333333     0.286074   
H8       H      0.300000000000     0.198500000000     0.265000000000    -0.0302672  
C9       C      0.277150000000     0.112350000000     0.198733333333     0.514683   
H9       H      0.296405000000     0.109233000000     0.213099666667    -0.136761   
Al01     Al     0.372960000000     0.093130000000     0.139933333333     5.95088    
O002     O      0.374650000000     0.120295000000     0.095433333333    -2.14909    
O003     O      0.416750000000     0.084400000000     0.135266666667    -1.42313    
O006     O      0.329150000000     0.098150000000     0.147800000000    -1.44431    
O1       O      0.364150000000     0.059300000000     0.100300000000    -1.37371    
O2       O      0.369700000000     0.060800000000     0.181266666667    -1.45055    
C2       C      0.383600000000     0.057500000000     0.214833333333     1.18276    
C4       C      0.345900000000     0.059000000000     0.070566666667     1.08838    
C1       C      0.333950000000     0.028550000000     0.053966666667    -0.431045   
C6       C      0.382300000000     0.028150000000     0.238666666667    -0.649525   
C8       C      0.309900000000     0.027650000000     0.025633333333     0.272471   
H8       H      0.301500000000     0.050000000000     0.015000000000    -0.0234895  
C9       C      0.387650000000     0.027150000000     0.282066666667     0.516139   
H9       H      0.390767000000     0.046405000000     0.296433000000    -0.137304   
Al01     Al     0.406870000000     0.122960000000     0.223266666667     5.95202    
O002     O      0.379705000000     0.124650000000     0.178766666667    -2.15119    
O003     O      0.415600000000     0.166750000000     0.218600000000    -1.42367    
O006     O      0.401850000000     0.079150000000     0.231133333333    -1.4448     
O1       O      0.440700000000     0.114150000000     0.183633333333    -1.37509    
O2       O      0.439200000000     0.119700000000     0.264600000000    -1.45073    
C2       C      0.442500000000     0.133600000000     0.298166666667     1.18292    
C4       C      0.441000000000     0.095900000000     0.153900000000     1.09094    
C1       C      0.471450000000     0.083950000000     0.137300000000    -0.43883    
C6       C      0.471850000000     0.132300000000     0.322000000000    -0.649586   
C8       C      0.472350000000     0.059900000000     0.108966666667     0.286464   
H8       H      0.450000000000     0.051500000000     0.098333333333    -0.0295759  
C9       C      0.472850000000     0.137650000000     0.032066666667     0.55917    
H9       H      0.453595000000     0.140767000000     0.046433000000    -0.148571   
Al01     Al     0.377040000000     0.156870000000     0.306600000000     5.95219    
O002     O      0.375350000000     0.129705000000     0.262100000000    -2.15148    
O003     O      0.333250000000     0.165600000000     0.301933333333    -1.42374    
O006     O      0.420850000000     0.151850000000     0.314466666667    -1.4448     
O1       O      0.385850000000     0.190700000000     0.266966666667    -1.37516    
O2       O      0.380300000000     0.189200000000     0.014600000000    -1.43333    
C2       C      0.366400000000     0.192500000000     0.048166666667     1.17693    
C4       C      0.404100000000     0.191000000000     0.237233333333     1.09098    
C1       C      0.416050000000     0.221450000000     0.220633333333    -0.438941   
C6       C      0.367700000000     0.221850000000     0.072000000000    -0.642879   
C8       C      0.440100000000     0.222350000000     0.192300000000     0.286178   
H8       H      0.448500000000     0.200000000000     0.181666666667    -0.0301629  
C9       C      0.362350000000     0.222850000000     0.115400000000     0.511183   
H9       H      0.359233000000     0.203595000000     0.129766333333    -0.13528    
Al01     Al     0.406870000000     0.377040000000     0.556600000000     5.95239    
O002     O      0.379705000000     0.375350000000     0.512100000000    -2.15153    
O003     O      0.415600000000     0.333250000000     0.551933333333    -1.42376    
O006     O      0.401850000000     0.420850000000     0.564466666667    -1.4448     
O1       O      0.440700000000     0.385850000000     0.516966666667    -1.37518    
O2       O      0.439200000000     0.380300000000     0.597933333333    -1.45071    
C2       C      0.442500000000     0.366400000000     0.631500000000     1.18299    
C4       C      0.441000000000     0.404100000000     0.487233333333     1.09101    
C1       C      0.471450000000     0.416050000000     0.470633333333    -0.438924   
C5       C      0.000000000000     0.372300000000     0.634833333333     0.574816   
C7       C      0.000000000000     0.361450000000     0.387700000000    -0.579728   
H7       H      0.000000000000     0.360297500000     0.417265666667     0.226677   
C3       C      0.000000000000     0.404450000000     0.488633333333     0.278157   
C6       C      0.471850000000     0.367700000000     0.655333333333    -0.64951    
C8       C      0.472350000000     0.440100000000     0.442300000000     0.286016   
H8       H      0.450000000000     0.448500000000     0.431666666667    -0.0303196  
C9       C      0.472850000000     0.362350000000     0.365400000000     0.515557   
H9       H      0.453595000000     0.359233000000     0.379766333333    -0.137039   
C13      C      0.000000000000     0.451050000000     0.428833333333    -0.330923   
H13      H      0.000000000000     0.468000000000     0.407000000000     0.119326   
H5       H      0.000000000000     0.376000000000     0.606333333333    -0.14643    
Al01     Al     0.122960000000     0.156870000000     0.639933333333     5.95247    
O002     O      0.124650000000     0.129705000000     0.595433333333    -2.15152    
O003     O      0.166750000000     0.165600000000     0.635266666667    -1.42376    
O006     O      0.079150000000     0.151850000000     0.647800000000    -1.44484    
O1       O      0.114150000000     0.190700000000     0.600300000000    -1.37519    
O2       O      0.119700000000     0.189200000000     0.347933333333    -1.45074    
C2       C      0.133600000000     0.192500000000     0.381500000000     1.18295    
C4       C      0.095900000000     0.191000000000     0.570566666667     1.091      
C1       C      0.083950000000     0.221450000000     0.553966666667    -0.43892    
C5       C      0.127700000000     0.250000000000     0.384833333333     0.576208   
C7       C      0.138550000000     0.250000000000     0.471033333333    -0.57751    
H7       H      0.139702500000     0.250000000000     0.500599000000     0.22632    
C3       C      0.095550000000     0.250000000000     0.571966666667     0.279329   
C6       C      0.132300000000     0.221850000000     0.405333333333    -0.64957    
C8       C      0.059900000000     0.222350000000     0.525633333333     0.285908   
H8       H      0.051500000000     0.200000000000     0.515000000000    -0.0304176  
C9       C      0.137650000000     0.222850000000     0.448733333333     0.515578   
H9       H      0.140767000000     0.203595000000     0.463099666667    -0.137029   
C13      C      0.048950000000     0.250000000000     0.512166666667    -0.328938   
H13      H      0.032000000000     0.250000000000     0.490333333333     0.118837   
H5       H      0.124000000000     0.250000000000     0.356333333333    -0.146575   
Al01     Al     0.343130000000     0.372960000000     0.389933333333     5.95225    
O002     O      0.370295000000     0.374650000000     0.345433333333    -2.15151    
O003     O      0.334400000000     0.416750000000     0.385266666667    -1.42376    
O006     O      0.348150000000     0.329150000000     0.397800000000    -1.4448     
O1       O      0.309300000000     0.364150000000     0.350300000000    -1.37518    
O2       O      0.310800000000     0.369700000000     0.431266666667    -1.45071    
C2       C      0.307500000000     0.383600000000     0.464833333333     1.18296    
C4       C      0.309000000000     0.345900000000     0.653900000000     1.09105    
C1       C      0.278550000000     0.333950000000     0.637300000000    -0.438912   
C5       C      0.250000000000     0.377700000000     0.468166666667     0.576224   
C7       C      0.250000000000     0.388550000000     0.554366666667    -0.577485   
H7       H      0.250000000000     0.389702500000     0.583932333333     0.226318   
C3       C      0.250000000000     0.345550000000     0.655300000000     0.27941    
C6       C      0.278150000000     0.382300000000     0.488666666667    -0.649534   
C8       C      0.277650000000     0.309900000000     0.608966666667     0.286053   
H8       H      0.300000000000     0.301500000000     0.598333333333    -0.0302932  
C9       C      0.277150000000     0.387650000000     0.532066666667     0.515582   
H9       H      0.296405000000     0.390767000000     0.546433000000    -0.137019   
C13      C      0.250000000000     0.298950000000     0.595500000000    -0.328908   
H13      H      0.250000000000     0.282000000000     0.573666666667     0.119143   
H5       H      0.250000000000     0.374000000000     0.439666666667    -0.146546   
Al01     Al     0.127040000000     0.093130000000     0.473266666667     5.95227    
O002     O      0.125350000000     0.120295000000     0.428766666667    -2.15151    
O003     O      0.083250000000     0.084400000000     0.468600000000    -1.42381    
O006     O      0.170850000000     0.098150000000     0.481133333333    -1.44482    
O1       O      0.135850000000     0.059300000000     0.433633333333    -1.37525    
O2       O      0.130300000000     0.060800000000     0.514600000000    -1.45077    
C2       C      0.116400000000     0.057500000000     0.548166666667     1.18291    
C4       C      0.154100000000     0.059000000000     0.403900000000     1.09098    
C1       C      0.166050000000     0.028550000000     0.387300000000    -0.439029   
C5       C      0.122300000000     0.000000000000     0.551500000000     0.574806   
C7       C      0.111450000000     0.000000000000     0.637700000000    -0.579722   
H7       H      0.110297500000     0.000000000000     0.333932333333     0.226626   
C3       C      0.154450000000     0.000000000000     0.405300000000     0.278132   
C6       C      0.117700000000     0.028150000000     0.572000000000    -0.649604   
C8       C      0.190100000000     0.027650000000     0.358966666667     0.286613   
H8       H      0.198500000000     0.050000000000     0.348333333333    -0.0305394  
C9       C      0.112350000000     0.027150000000     0.615400000000     0.516241   
H9       H      0.109233000000     0.046405000000     0.629766333333    -0.137307   
C13      C      0.201050000000     0.000000000000     0.345500000000    -0.330925   
H13      H      0.218000000000     0.000000000000     0.657000000000     0.119371   
H5       H      0.126000000000     0.000000000000     0.523000000000    -0.146451   
Al01     Al     0.093130000000     0.377040000000     0.556600000000     5.95233    
O002     O      0.120295000000     0.375350000000     0.512100000000    -2.15151    
O003     O      0.084400000000     0.333250000000     0.551933333333    -1.42379    
O006     O      0.098150000000     0.420850000000     0.564466666667    -1.44482    
O1       O      0.059300000000     0.385850000000     0.516966666667    -1.37525    
O2       O      0.060800000000     0.380300000000     0.597933333333    -1.45077    
C2       C      0.057500000000     0.366400000000     0.631500000000     1.18294    
C4       C      0.059000000000     0.404100000000     0.487233333333     1.091      
C1       C      0.028550000000     0.416050000000     0.470633333333    -0.439026   
C6       C      0.028150000000     0.367700000000     0.655333333333    -0.649562   
C8       C      0.027650000000     0.440100000000     0.442300000000     0.286622   
H8       H      0.050000000000     0.448500000000     0.431666666667    -0.0305354  
C9       C      0.027150000000     0.362350000000     0.365400000000     0.51622    
H9       H      0.046405000000     0.359233000000     0.379766333333    -0.137318   
Al01     Al     0.122960000000     0.343130000000     0.639933333333     5.95246    
O002     O      0.124650000000     0.370295000000     0.595433333333    -2.15152    
O003     O      0.166750000000     0.334400000000     0.635266666667    -1.42376    
O006     O      0.079150000000     0.348150000000     0.647800000000    -1.44484    
O1       O      0.114150000000     0.309300000000     0.600300000000    -1.37519    
O2       O      0.119700000000     0.310800000000     0.347933333333    -1.45074    
C2       C      0.133600000000     0.307500000000     0.381500000000     1.18294    
C4       C      0.095900000000     0.309000000000     0.570566666667     1.091      
C1       C      0.083950000000     0.278550000000     0.553966666667    -0.438921   
C6       C      0.132300000000     0.278150000000     0.405333333333    -0.649571   
C8       C      0.059900000000     0.277650000000     0.525633333333     0.285907   
H8       H      0.051500000000     0.300000000000     0.515000000000    -0.0304202  
C9       C      0.137650000000     0.277150000000     0.448733333333     0.515578   
H9       H      0.140767000000     0.296405000000     0.463099666667    -0.137031   
Al01     Al     0.156870000000     0.372960000000     0.389933333333     5.95226    
O002     O      0.129705000000     0.374650000000     0.345433333333    -2.15151    
O003     O      0.165600000000     0.416750000000     0.385266666667    -1.42376    
O006     O      0.151850000000     0.329150000000     0.397800000000    -1.4448     
O1       O      0.190700000000     0.364150000000     0.350300000000    -1.37518    
O2       O      0.189200000000     0.369700000000     0.431266666667    -1.45071    
C2       C      0.192500000000     0.383600000000     0.464833333333     1.18296    
C4       C      0.191000000000     0.345900000000     0.653900000000     1.09105    
C1       C      0.221450000000     0.333950000000     0.637300000000    -0.43891    
C6       C      0.221850000000     0.382300000000     0.488666666667    -0.649533   
C8       C      0.222350000000     0.309900000000     0.608966666667     0.286054   
H8       H      0.200000000000     0.301500000000     0.598333333333    -0.0302907  
C9       C      0.222850000000     0.387650000000     0.532066666667     0.515583   
H9       H      0.203595000000     0.390767000000     0.546433000000    -0.137017   
Al01     Al     0.127040000000     0.406870000000     0.473266666667     5.95232    
O002     O      0.125350000000     0.379705000000     0.428766666667    -2.15153    
O003     O      0.083250000000     0.415600000000     0.468600000000    -1.42378    
O006     O      0.170850000000     0.401850000000     0.481133333333    -1.4448     
O1       O      0.135850000000     0.440700000000     0.433633333333    -1.37519    
O2       O      0.130300000000     0.439200000000     0.514600000000    -1.45071    
C2       C      0.116400000000     0.442500000000     0.548166666667     1.18297    
C4       C      0.154100000000     0.441000000000     0.403900000000     1.09099    
C1       C      0.166050000000     0.471450000000     0.387300000000    -0.438926   
C6       C      0.117700000000     0.471850000000     0.572000000000    -0.649552   
C8       C      0.190100000000     0.472350000000     0.358966666667     0.286007   
H8       H      0.198500000000     0.450000000000     0.348333333333    -0.0303235  
C9       C      0.112350000000     0.472850000000     0.615400000000     0.51558    
H9       H      0.109233000000     0.453595000000     0.629766333333    -0.137029   
Al01     Al     0.156870000000     0.127040000000     0.389933333333     5.95227    
O002     O      0.129705000000     0.125350000000     0.345433333333    -2.15152    
O003     O      0.165600000000     0.083250000000     0.385266666667    -1.42378    
O006     O      0.151850000000     0.170850000000     0.397800000000    -1.4448     
O1       O      0.190700000000     0.135850000000     0.350300000000    -1.37519    
O2       O      0.189200000000     0.130300000000     0.431266666667    -1.45071    
C2       C      0.192500000000     0.116400000000     0.464833333333     1.18295    
C4       C      0.191000000000     0.154100000000     0.653900000000     1.09105    
C1       C      0.221450000000     0.166050000000     0.637300000000    -0.438909   
C5       C      0.250000000000     0.122300000000     0.468166666667     0.576219   
C7       C      0.250000000000     0.111450000000     0.554366666667    -0.577518   
H7       H      0.250000000000     0.110297500000     0.583932333333     0.226303   
C3       C      0.250000000000     0.154450000000     0.655300000000     0.279405   
C6       C      0.221850000000     0.117700000000     0.488666666667    -0.649558   
C8       C      0.222350000000     0.190100000000     0.608966666667     0.286056   
H8       H      0.200000000000     0.198500000000     0.598333333333    -0.0302894  
C9       C      0.222850000000     0.112350000000     0.532066666667     0.515568   
H9       H      0.203595000000     0.109233000000     0.546433000000    -0.137036   
C13      C      0.250000000000     0.201050000000     0.595500000000    -0.328906   
H13      H      0.250000000000     0.218000000000     0.573666666667     0.119144   
H5       H      0.250000000000     0.126000000000     0.439666666667    -0.146555   
Al01     Al     0.372960000000     0.406870000000     0.473266666667     5.95232    
O002     O      0.374650000000     0.379705000000     0.428766666667    -2.15152    
O003     O      0.416750000000     0.415600000000     0.468600000000    -1.42376    
O006     O      0.329150000000     0.401850000000     0.481133333333    -1.4448     
O1       O      0.364150000000     0.440700000000     0.433633333333    -1.37518    
O2       O      0.369700000000     0.439200000000     0.514600000000    -1.45071    
C2       C      0.383600000000     0.442500000000     0.548166666667     1.18297    
C4       C      0.345900000000     0.441000000000     0.403900000000     1.09099    
C1       C      0.333950000000     0.471450000000     0.387300000000    -0.438928   
C5       C      0.377700000000     0.000000000000     0.551500000000     0.574808   
C7       C      0.388550000000     0.000000000000     0.637700000000    -0.579694   
H7       H      0.389702500000     0.000000000000     0.333932333333     0.226642   
C3       C      0.345550000000     0.000000000000     0.405300000000     0.278135   
C6       C      0.382300000000     0.471850000000     0.572000000000    -0.649527   
C8       C      0.309900000000     0.472350000000     0.358966666667     0.286005   
H8       H      0.301500000000     0.450000000000     0.348333333333    -0.0303248  
C9       C      0.387650000000     0.472850000000     0.615400000000     0.515595   
H9       H      0.390767000000     0.453595000000     0.629766333333    -0.13701    
C13      C      0.298950000000     0.000000000000     0.345500000000    -0.330929   
H13      H      0.282000000000     0.000000000000     0.657000000000     0.119371   
H5       H      0.374000000000     0.000000000000     0.523000000000    -0.146442   
Al01     Al     0.093130000000     0.122960000000     0.556600000000     5.95233    
O002     O      0.120295000000     0.124650000000     0.512100000000    -2.1515     
O003     O      0.084400000000     0.166750000000     0.551933333333    -1.42379    
O006     O      0.098150000000     0.079150000000     0.564466666667    -1.44486    
O1       O      0.059300000000     0.114150000000     0.516966666667    -1.37525    
O2       O      0.060800000000     0.119700000000     0.597933333333    -1.4508     
C2       C      0.057500000000     0.133600000000     0.631500000000     1.18294    
C4       C      0.059000000000     0.095900000000     0.487233333333     1.09097    
C1       C      0.028550000000     0.083950000000     0.470633333333    -0.439029   
C5       C      0.000000000000     0.127700000000     0.634833333333     0.574814   
C7       C      0.000000000000     0.138550000000     0.387700000000    -0.579739   
H7       H      0.000000000000     0.139702500000     0.417265666667     0.226687   
C3       C      0.000000000000     0.095550000000     0.488633333333     0.278097   
C6       C      0.028150000000     0.132300000000     0.655333333333    -0.649589   
C8       C      0.027650000000     0.059900000000     0.442300000000     0.286492   
H8       H      0.050000000000     0.051500000000     0.431666666667    -0.0306478  
C9       C      0.027150000000     0.137650000000     0.365400000000     0.516225   
H9       H      0.046405000000     0.140767000000     0.379766333333    -0.137321   
C13      C      0.000000000000     0.048950000000     0.428833333333    -0.330939   
H13      H      0.000000000000     0.032000000000     0.407000000000     0.11904    
H5       H      0.000000000000     0.124000000000     0.606333333333    -0.146455   
Al01     Al     0.377040000000     0.343130000000     0.639933333333     5.95246    
O002     O      0.375350000000     0.370295000000     0.595433333333    -2.15154    
O003     O      0.333250000000     0.334400000000     0.635266666667    -1.42376    
O006     O      0.420850000000     0.348150000000     0.647800000000    -1.4448     
O1       O      0.385850000000     0.309300000000     0.600300000000    -1.37518    
O2       O      0.380300000000     0.310800000000     0.347933333333    -1.45071    
C2       C      0.366400000000     0.307500000000     0.381500000000     1.18294    
C4       C      0.404100000000     0.309000000000     0.570566666667     1.09103    
C1       C      0.416050000000     0.278550000000     0.553966666667    -0.438918   
C5       C      0.372300000000     0.250000000000     0.384833333333     0.576212   
C7       C      0.361450000000     0.250000000000     0.471033333333    -0.577496   
H7       H      0.360297500000     0.250000000000     0.500599000000     0.226311   
C3       C      0.404450000000     0.250000000000     0.571966666667     0.279391   
C6       C      0.367700000000     0.278150000000     0.405333333333    -0.649545   
C8       C      0.440100000000     0.277650000000     0.525633333333     0.286035   
H8       H      0.448500000000     0.300000000000     0.515000000000    -0.030307   
C9       C      0.362350000000     0.277150000000     0.448733333333     0.515572   
H9       H      0.359233000000     0.296405000000     0.463099666667    -0.137028   
C13      C      0.451050000000     0.250000000000     0.512166666667    -0.328916   
H13      H      0.468000000000     0.250000000000     0.490333333333     0.119123   
H5       H      0.376000000000     0.250000000000     0.356333333333    -0.146551   
Al01     Al     0.343130000000     0.127040000000     0.389933333333     5.95226    
O002     O      0.370295000000     0.125350000000     0.345433333333    -2.15152    
O003     O      0.334400000000     0.083250000000     0.385266666667    -1.42378    
O006     O      0.348150000000     0.170850000000     0.397800000000    -1.44479    
O1       O      0.309300000000     0.135850000000     0.350300000000    -1.37519    
O2       O      0.310800000000     0.130300000000     0.431266666667    -1.45071    
C2       C      0.307500000000     0.116400000000     0.464833333333     1.18295    
C4       C      0.309000000000     0.154100000000     0.653900000000     1.09105    
C1       C      0.278550000000     0.166050000000     0.637300000000    -0.43891    
C6       C      0.278150000000     0.117700000000     0.488666666667    -0.64956    
C8       C      0.277650000000     0.190100000000     0.608966666667     0.286055   
H8       H      0.300000000000     0.198500000000     0.598333333333    -0.0302918  
C9       C      0.277150000000     0.112350000000     0.532066666667     0.515567   
H9       H      0.296405000000     0.109233000000     0.546433000000    -0.137038   
Al01     Al     0.372960000000     0.093130000000     0.473266666667     5.95226    
O002     O      0.374650000000     0.120295000000     0.428766666667    -2.15151    
O003     O      0.416750000000     0.084400000000     0.468600000000    -1.42379    
O006     O      0.329150000000     0.098150000000     0.481133333333    -1.44482    
O1       O      0.364150000000     0.059300000000     0.433633333333    -1.37525    
O2       O      0.369700000000     0.060800000000     0.514600000000    -1.45077    
C2       C      0.383600000000     0.057500000000     0.548166666667     1.18292    
C4       C      0.345900000000     0.059000000000     0.403900000000     1.09098    
C1       C      0.333950000000     0.028550000000     0.387300000000    -0.43903    
C6       C      0.382300000000     0.028150000000     0.572000000000    -0.649579   
C8       C      0.309900000000     0.027650000000     0.358966666667     0.286612   
H8       H      0.301500000000     0.050000000000     0.348333333333    -0.0305408  
C9       C      0.387650000000     0.027150000000     0.615400000000     0.516257   
H9       H      0.390767000000     0.046405000000     0.629766333333    -0.137288   
Al01     Al     0.406870000000     0.122960000000     0.556600000000     5.95238    
O002     O      0.379705000000     0.124650000000     0.512100000000    -2.15151    
O003     O      0.415600000000     0.166750000000     0.551933333333    -1.42376    
O006     O      0.401850000000     0.079150000000     0.564466666667    -1.44484    
O1       O      0.440700000000     0.114150000000     0.516966666667    -1.37519    
O2       O      0.439200000000     0.119700000000     0.597933333333    -1.45074    
C2       C      0.442500000000     0.133600000000     0.631500000000     1.18299    
C4       C      0.441000000000     0.095900000000     0.487233333333     1.09097    
C1       C      0.471450000000     0.083950000000     0.470633333333    -0.438927   
C6       C      0.471850000000     0.132300000000     0.655333333333    -0.649536   
C8       C      0.472350000000     0.059900000000     0.442300000000     0.285887   
H8       H      0.450000000000     0.051500000000     0.431666666667    -0.0304329  
C9       C      0.472850000000     0.137650000000     0.365400000000     0.515563   
H9       H      0.453595000000     0.140767000000     0.379766333333    -0.137043   
Al01     Al     0.377040000000     0.156870000000     0.639933333333     5.95247    
O002     O      0.375350000000     0.129705000000     0.595433333333    -2.15154    
O003     O      0.333250000000     0.165600000000     0.635266666667    -1.42376    
O006     O      0.420850000000     0.151850000000     0.647800000000    -1.4448     
O1       O      0.385850000000     0.190700000000     0.600300000000    -1.37518    
O2       O      0.380300000000     0.189200000000     0.347933333333    -1.45071    
C2       C      0.366400000000     0.192500000000     0.381500000000     1.18294    
C4       C      0.404100000000     0.191000000000     0.570566666667     1.09103    
C1       C      0.416050000000     0.221450000000     0.553966666667    -0.438917   
C6       C      0.367700000000     0.221850000000     0.405333333333    -0.649543   
C8       C      0.440100000000     0.222350000000     0.525633333333     0.286036   
H8       H      0.448500000000     0.200000000000     0.515000000000    -0.0303045  
C9       C      0.362350000000     0.222850000000     0.448733333333     0.515572   
H9       H      0.359233000000     0.203595000000     0.463099666667    -0.137025   
Al01     Al     0.406870000000     0.377040000000     0.889933333333     5.95181    
O002     O      0.379705000000     0.375350000000     0.845433333333    -2.15166    
O003     O      0.415600000000     0.333250000000     0.885266666667    -1.42235    
O006     O      0.401850000000     0.420850000000     0.897800000000    -1.4468     
O1       O      0.440700000000     0.385850000000     0.850300000000    -1.3749     
O2       O      0.439200000000     0.380300000000     0.931266666667    -1.45321    
C2       C      0.442500000000     0.366400000000     0.964833333333     1.19115    
C4       C      0.441000000000     0.404100000000     0.820566666667     1.09093    
C1       C      0.471450000000     0.416050000000     0.803966666667    -0.438913   
C5       C      0.000000000000     0.372300000000     0.968166666667     0.602345   
C7       C      0.000000000000     0.361450000000     0.721033333333    -0.579677   
H7       H      0.000000000000     0.360297500000     0.750599000000     0.226723   
C3       C      0.000000000000     0.404450000000     0.821966666667     0.27819    
C6       C      0.471850000000     0.367700000000     0.988666666667    -0.684486   
C8       C      0.472350000000     0.440100000000     0.775633333333     0.285985   
H8       H      0.450000000000     0.448500000000     0.765000000000    -0.0302704  
C9       C      0.472850000000     0.362350000000     0.698733333333     0.515604   
H9       H      0.453595000000     0.359233000000     0.713099666667    -0.136996   
C13      C      0.000000000000     0.451050000000     0.762166666667    -0.330907   
H13      H      0.000000000000     0.468000000000     0.740333333333     0.119371   
H5       H      0.000000000000     0.376000000000     0.939666666667    -0.156067   
Al01     Al     0.122960000000     0.156870000000     0.973266666667     5.89816    
O002     O      0.124650000000     0.129705000000     0.928766666667    -2.14388    
O003     O      0.166750000000     0.165600000000     0.968600000000    -1.4133     
O006     O      0.079150000000     0.151850000000     0.981133333333    -1.44356    
O1       O      0.114150000000     0.190700000000     0.933633333333    -1.36867    
O2       O      0.119700000000     0.189200000000     0.681266666667    -1.45073    
C2       C      0.133600000000     0.192500000000     0.714833333333     1.18299    
C4       C      0.095900000000     0.191000000000     0.903900000000     1.08756    
C1       C      0.083950000000     0.221450000000     0.887300000000    -0.437537   
C5       C      0.127700000000     0.250000000000     0.718166666667     0.576206   
C7       C      0.138550000000     0.250000000000     0.804366666667    -0.577339   
H7       H      0.139702500000     0.250000000000     0.833932333333     0.22623    
C3       C      0.095550000000     0.250000000000     0.905300000000     0.276014   
C6       C      0.132300000000     0.221850000000     0.738666666667    -0.649466   
C8       C      0.059900000000     0.222350000000     0.858966666667     0.284604   
H8       H      0.051500000000     0.200000000000     0.848333333333    -0.030112   
C9       C      0.137650000000     0.222850000000     0.782066666667     0.515542   
H9       H      0.140767000000     0.203595000000     0.796433000000    -0.136953   
C13      C      0.048950000000     0.250000000000     0.845500000000    -0.328025   
H13      H      0.032000000000     0.250000000000     0.823666666667     0.118546   
H5       H      0.124000000000     0.250000000000     0.689666666667    -0.146523   
Al01     Al     0.343130000000     0.372960000000     0.723266666667     5.95251    
O002     O      0.370295000000     0.374650000000     0.678766666667    -2.15154    
O003     O      0.334400000000     0.416750000000     0.718600000000    -1.42377    
O006     O      0.348150000000     0.329150000000     0.731133333333    -1.44479    
O1       O      0.309300000000     0.364150000000     0.683633333333    -1.37518    
O2       O      0.310800000000     0.369700000000     0.764600000000    -1.45071    
C2       C      0.307500000000     0.383600000000     0.798166666667     1.18302    
C4       C      0.309000000000     0.345900000000     0.987233333333     1.06832    
C1       C      0.278550000000     0.333950000000     0.970633333333    -0.430131   
C5       C      0.250000000000     0.377700000000     0.801500000000     0.576214   
C7       C      0.250000000000     0.388550000000     0.887700000000    -0.577474   
H7       H      0.250000000000     0.389702500000     0.917265666667     0.224995   
C3       C      0.250000000000     0.345550000000     0.988633333333     0.267348   
C6       C      0.278150000000     0.382300000000     0.822000000000    -0.649528   
C8       C      0.277650000000     0.309900000000     0.942300000000     0.278425   
H8       H      0.300000000000     0.301500000000     0.931666666667    -0.0290159  
C9       C      0.277150000000     0.387650000000     0.865400000000     0.515363   
H9       H      0.296405000000     0.390767000000     0.879766333333    -0.137509   
C13      C      0.250000000000     0.298950000000     0.928833333333    -0.322934   
H13      H      0.250000000000     0.282000000000     0.907000000000     0.117136   
H5       H      0.250000000000     0.374000000000     0.773000000000    -0.146507   
Al01     Al     0.127040000000     0.093130000000     0.806600000000     5.95279    
O002     O      0.125350000000     0.120295000000     0.762100000000    -2.15157    
O003     O      0.083250000000     0.084400000000     0.801933333333    -1.4238     
O006     O      0.170850000000     0.098150000000     0.814466666667    -1.44501    
O1       O      0.135850000000     0.059300000000     0.766966666667    -1.37521    
O2       O      0.130300000000     0.060800000000     0.847933333333    -1.45259    
C2       C      0.116400000000     0.057500000000     0.881500000000     1.1884     
C4       C      0.154100000000     0.059000000000     0.737233333333     1.09102    
C1       C      0.166050000000     0.028550000000     0.720633333333    -0.439035   
C5       C      0.122300000000     0.000000000000     0.884833333333     0.589164   
C7       C      0.111450000000     0.000000000000     0.971033333333    -0.627478   
H7       H      0.110297500000     0.000000000000     0.667265666667     0.226699   
C3       C      0.154450000000     0.000000000000     0.738633333333     0.278243   
C6       C      0.117700000000     0.028150000000     0.905333333333    -0.665588   
C8       C      0.190100000000     0.027650000000     0.692300000000     0.286645   
H8       H      0.198500000000     0.050000000000     0.681666666667    -0.0305091  
C9       C      0.112350000000     0.027150000000     0.948733333333     0.543189   
H9       H      0.109233000000     0.046405000000     0.963099666667    -0.149682   
C13      C      0.201050000000     0.000000000000     0.678833333333    -0.330914   
H13      H      0.218000000000     0.000000000000     0.990333333333     0.101406   
H5       H      0.126000000000     0.000000000000     0.856333333333    -0.15139    
Al01     Al     0.093130000000     0.377040000000     0.889933333333     5.95175    
O002     O      0.120295000000     0.375350000000     0.845433333333    -2.15164    
O003     O      0.084400000000     0.333250000000     0.885266666667    -1.42238    
O006     O      0.098150000000     0.420850000000     0.897800000000    -1.44682    
O1       O      0.059300000000     0.385850000000     0.850300000000    -1.37496    
O2       O      0.060800000000     0.380300000000     0.931266666667    -1.45325    
C2       C      0.057500000000     0.366400000000     0.964833333333     1.19106    
C4       C      0.059000000000     0.404100000000     0.820566666667     1.09093    
C1       C      0.028550000000     0.416050000000     0.803966666667    -0.439015   
C6       C      0.028150000000     0.367700000000     0.988666666667    -0.684435   
C8       C      0.027650000000     0.440100000000     0.775633333333     0.286592   
H8       H      0.050000000000     0.448500000000     0.765000000000    -0.0304864  
C9       C      0.027150000000     0.362350000000     0.698733333333     0.516267   
H9       H      0.046405000000     0.359233000000     0.713099666667    -0.137274   
Al01     Al     0.122960000000     0.343130000000     0.973266666667     5.89809    
O002     O      0.124650000000     0.370295000000     0.928766666667    -2.14387    
O003     O      0.166750000000     0.334400000000     0.968600000000    -1.41329    
O006     O      0.079150000000     0.348150000000     0.981133333333    -1.44356    
O1       O      0.114150000000     0.309300000000     0.933633333333    -1.36866    
O2       O      0.119700000000     0.310800000000     0.681266666667    -1.45073    
C2       C      0.133600000000     0.307500000000     0.714833333333     1.18299    
C4       C      0.095900000000     0.309000000000     0.903900000000     1.08755    
C1       C      0.083950000000     0.278550000000     0.887300000000    -0.437537   
C6       C      0.132300000000     0.278150000000     0.738666666667    -0.649468   
C8       C      0.059900000000     0.277650000000     0.858966666667     0.284603   
H8       H      0.051500000000     0.300000000000     0.848333333333    -0.0301144  
C9       C      0.137650000000     0.277150000000     0.782066666667     0.515541   
H9       H      0.140767000000     0.296405000000     0.796433000000    -0.136955   
Al01     Al     0.156870000000     0.372960000000     0.723266666667     5.95252    
O002     O      0.129705000000     0.374650000000     0.678766666667    -2.15154    
O003     O      0.165600000000     0.416750000000     0.718600000000    -1.42377    
O006     O      0.151850000000     0.329150000000     0.731133333333    -1.44479    
O1       O      0.190700000000     0.364150000000     0.683633333333    -1.37518    
O2       O      0.189200000000     0.369700000000     0.764600000000    -1.45071    
C2       C      0.192500000000     0.383600000000     0.798166666667     1.18302    
C4       C      0.191000000000     0.345900000000     0.987233333333     1.06833    
C1       C      0.221450000000     0.333950000000     0.970633333333    -0.430133   
C6       C      0.221850000000     0.382300000000     0.822000000000    -0.649526   
C8       C      0.222350000000     0.309900000000     0.942300000000     0.278428   
H8       H      0.200000000000     0.301500000000     0.931666666667    -0.0290133  
C9       C      0.222850000000     0.387650000000     0.865400000000     0.515364   
H9       H      0.203595000000     0.390767000000     0.879766333333    -0.137507   
Al01     Al     0.127040000000     0.406870000000     0.806600000000     5.95285    
O002     O      0.125350000000     0.379705000000     0.762100000000    -2.15158    
O003     O      0.083250000000     0.415600000000     0.801933333333    -1.42378    
O006     O      0.170850000000     0.401850000000     0.814466666667    -1.44499    
O1       O      0.135850000000     0.440700000000     0.766966666667    -1.37514    
O2       O      0.130300000000     0.439200000000     0.847933333333    -1.45254    
C2       C      0.116400000000     0.442500000000     0.881500000000     1.18848    
C4       C      0.154100000000     0.441000000000     0.737233333333     1.09103    
C1       C      0.166050000000     0.471450000000     0.720633333333    -0.438932   
C6       C      0.117700000000     0.471850000000     0.905333333333    -0.665592   
C8       C      0.190100000000     0.472350000000     0.692300000000     0.286039   
H8       H      0.198500000000     0.450000000000     0.681666666667    -0.0302937  
C9       C      0.112350000000     0.472850000000     0.948733333333     0.542625   
H9       H      0.109233000000     0.453595000000     0.963099666667    -0.149446   
Al01     Al     0.156870000000     0.127040000000     0.723266666667     5.95252    
O002     O      0.129705000000     0.125350000000     0.678766666667    -2.15155    
O003     O      0.165600000000     0.083250000000     0.718600000000    -1.42379    
O006     O      0.151850000000     0.170850000000     0.731133333333    -1.44478    
O1       O      0.190700000000     0.135850000000     0.683633333333    -1.37519    
O2       O      0.189200000000     0.130300000000     0.764600000000    -1.45071    
C2       C      0.192500000000     0.116400000000     0.798166666667     1.18301    
C4       C      0.191000000000     0.154100000000     0.987233333333     1.06837    
C1       C      0.221450000000     0.166050000000     0.970633333333    -0.430144   
C5       C      0.250000000000     0.122300000000     0.801500000000     0.576209   
C7       C      0.250000000000     0.111450000000     0.887700000000    -0.577506   
H7       H      0.250000000000     0.110297500000     0.917265666667     0.224984   
C3       C      0.250000000000     0.154450000000     0.988633333333     0.267361   
C6       C      0.221850000000     0.117700000000     0.822000000000    -0.649551   
C8       C      0.222350000000     0.190100000000     0.942300000000     0.27844    
H8       H      0.200000000000     0.198500000000     0.931666666667    -0.0290146  
C9       C      0.222850000000     0.112350000000     0.865400000000     0.515349   
H9       H      0.203595000000     0.109233000000     0.879766333333    -0.137524   
C13      C      0.250000000000     0.201050000000     0.928833333333    -0.322941   
H13      H      0.250000000000     0.218000000000     0.907000000000     0.11714    
H5       H      0.250000000000     0.126000000000     0.773000000000    -0.146517   
Al01     Al     0.372960000000     0.406870000000     0.806600000000     5.95285    
O002     O      0.374650000000     0.379705000000     0.762100000000    -2.15158    
O003     O      0.416750000000     0.415600000000     0.801933333333    -1.42376    
O006     O      0.329150000000     0.401850000000     0.814466666667    -1.445      
O1       O      0.364150000000     0.440700000000     0.766966666667    -1.37514    
O2       O      0.369700000000     0.439200000000     0.847933333333    -1.45254    
C2       C      0.383600000000     0.442500000000     0.881500000000     1.18849    
C4       C      0.345900000000     0.441000000000     0.737233333333     1.09103    
C1       C      0.333950000000     0.471450000000     0.720633333333    -0.438934   
C5       C      0.377700000000     0.000000000000     0.884833333333     0.589188   
C7       C      0.388550000000     0.000000000000     0.971033333333    -0.627523   
H7       H      0.389702500000     0.000000000000     0.667265666667     0.226715   
C3       C      0.345550000000     0.000000000000     0.738633333333     0.278246   
C6       C      0.382300000000     0.471850000000     0.905333333333    -0.665591   
C8       C      0.309900000000     0.472350000000     0.692300000000     0.286038   
H8       H      0.301500000000     0.450000000000     0.681666666667    -0.030295   
C9       C      0.387650000000     0.472850000000     0.948733333333     0.542682   
H9       H      0.390767000000     0.453595000000     0.963099666667    -0.149446   
C13      C      0.298950000000     0.000000000000     0.678833333333    -0.330918   
H13      H      0.282000000000     0.000000000000     0.990333333333     0.101398   
H5       H      0.374000000000     0.000000000000     0.856333333333    -0.151389   
Al01     Al     0.093130000000     0.122960000000     0.889933333333     5.95175    
O002     O      0.120295000000     0.124650000000     0.845433333333    -2.15163    
O003     O      0.084400000000     0.166750000000     0.885266666667    -1.42238    
O006     O      0.098150000000     0.079150000000     0.897800000000    -1.44686    
O1       O      0.059300000000     0.114150000000     0.850300000000    -1.37497    
O2       O      0.060800000000     0.119700000000     0.931266666667    -1.45328    
C2       C      0.057500000000     0.133600000000     0.964833333333     1.19105    
C4       C      0.059000000000     0.095900000000     0.820566666667     1.09089    
C1       C      0.028550000000     0.083950000000     0.803966666667    -0.439018   
C5       C      0.000000000000     0.127700000000     0.968166666667     0.602303   
C7       C      0.000000000000     0.138550000000     0.721033333333    -0.579688   
H7       H      0.000000000000     0.139702500000     0.750599000000     0.226733   
C3       C      0.000000000000     0.095550000000     0.821966666667     0.278131   
C6       C      0.028150000000     0.132300000000     0.988666666667    -0.68441    
C8       C      0.027650000000     0.059900000000     0.775633333333     0.286463   
H8       H      0.050000000000     0.051500000000     0.765000000000    -0.0305982  
C9       C      0.027150000000     0.137650000000     0.698733333333     0.516272   
H9       H      0.046405000000     0.140767000000     0.713099666667    -0.137277   
C13      C      0.000000000000     0.048950000000     0.762166666667    -0.330922   
H13      H      0.000000000000     0.032000000000     0.740333333333     0.119086   
H5       H      0.000000000000     0.124000000000     0.939666666667    -0.156077   
Al01     Al     0.377040000000     0.343130000000     0.973266666667     5.89803    
O002     O      0.375350000000     0.370295000000     0.928766666667    -2.14388    
O003     O      0.333250000000     0.334400000000     0.968600000000    -1.41328    
O006     O      0.420850000000     0.348150000000     0.981133333333    -1.44352    
O1       O      0.385850000000     0.309300000000     0.933633333333    -1.36865    
O2       O      0.380300000000     0.310800000000     0.681266666667    -1.4507     
C2       C      0.366400000000     0.307500000000     0.714833333333     1.18299    
C4       C      0.404100000000     0.309000000000     0.903900000000     1.08758    
C1       C      0.416050000000     0.278550000000     0.887300000000    -0.437533   
C5       C      0.372300000000     0.250000000000     0.718166666667     0.576211   
C7       C      0.361450000000     0.250000000000     0.804366666667    -0.577324   
H7       H      0.360297500000     0.250000000000     0.833932333333     0.22622    
C3       C      0.404450000000     0.250000000000     0.905300000000     0.276071   
C6       C      0.367700000000     0.278150000000     0.738666666667    -0.649441   
C8       C      0.440100000000     0.277650000000     0.858966666667     0.284729   
H8       H      0.448500000000     0.300000000000     0.848333333333    -0.0300011  
C9       C      0.362350000000     0.277150000000     0.782066666667     0.515535   
H9       H      0.359233000000     0.296405000000     0.796433000000    -0.136952   
C13      C      0.451050000000     0.250000000000     0.845500000000    -0.328002   
H13      H      0.468000000000     0.250000000000     0.823666666667     0.118831   
H5       H      0.376000000000     0.250000000000     0.689666666667    -0.146499   
Al01     Al     0.343130000000     0.127040000000     0.723266666667     5.95251    
O002     O      0.370295000000     0.125350000000     0.678766666667    -2.15155    
O003     O      0.334400000000     0.083250000000     0.718600000000    -1.42379    
O006     O      0.348150000000     0.170850000000     0.731133333333    -1.44478    
O1       O      0.309300000000     0.135850000000     0.683633333333    -1.37519    
O2       O      0.310800000000     0.130300000000     0.764600000000    -1.45071    
C2       C      0.307500000000     0.116400000000     0.798166666667     1.18301    
C4       C      0.309000000000     0.154100000000     0.987233333333     1.06835    
C1       C      0.278550000000     0.166050000000     0.970633333333    -0.430142   
C6       C      0.278150000000     0.117700000000     0.822000000000    -0.649553   
C8       C      0.277650000000     0.190100000000     0.942300000000     0.278437   
H8       H      0.300000000000     0.198500000000     0.931666666667    -0.0290172  
C9       C      0.277150000000     0.112350000000     0.865400000000     0.515349   
H9       H      0.296405000000     0.109233000000     0.879766333333    -0.137527   
Al01     Al     0.372960000000     0.093130000000     0.806600000000     5.95279    
O002     O      0.374650000000     0.120295000000     0.762100000000    -2.15156    
O003     O      0.416750000000     0.084400000000     0.801933333333    -1.42378    
O006     O      0.329150000000     0.098150000000     0.814466666667    -1.44502    
O1       O      0.364150000000     0.059300000000     0.766966666667    -1.3752     
O2       O      0.369700000000     0.060800000000     0.847933333333    -1.45259    
C2       C      0.383600000000     0.057500000000     0.881500000000     1.18842    
C4       C      0.345900000000     0.059000000000     0.737233333333     1.09102    
C1       C      0.333950000000     0.028550000000     0.720633333333    -0.439036   
C6       C      0.382300000000     0.028150000000     0.905333333333    -0.665588   
C8       C      0.309900000000     0.027650000000     0.692300000000     0.286643   
H8       H      0.301500000000     0.050000000000     0.681666666667    -0.0305105  
C9       C      0.387650000000     0.027150000000     0.948733333333     0.543247   
H9       H      0.390767000000     0.046405000000     0.963099666667    -0.149682   
Al01     Al     0.406870000000     0.122960000000     0.889933333333     5.95181    
O002     O      0.379705000000     0.124650000000     0.845433333333    -2.15164    
O003     O      0.415600000000     0.166750000000     0.885266666667    -1.42235    
O006     O      0.401850000000     0.079150000000     0.897800000000    -1.44684    
O1       O      0.440700000000     0.114150000000     0.850300000000    -1.3749     
O2       O      0.439200000000     0.119700000000     0.931266666667    -1.45323    
C2       C      0.442500000000     0.133600000000     0.964833333333     1.19114    
C4       C      0.441000000000     0.095900000000     0.820566666667     1.0909     
C1       C      0.471450000000     0.083950000000     0.803966666667    -0.438916   
C6       C      0.471850000000     0.132300000000     0.988666666667    -0.68446    
C8       C      0.472350000000     0.059900000000     0.775633333333     0.285857   
H8       H      0.450000000000     0.051500000000     0.765000000000    -0.0303833  
C9       C      0.472850000000     0.137650000000     0.698733333333     0.51561    
H9       H      0.453595000000     0.140767000000     0.713099666667    -0.136999   
Al01     Al     0.377040000000     0.156870000000     0.973266666667     5.8981     
O002     O      0.375350000000     0.129705000000     0.928766666667    -2.14389    
O003     O      0.333250000000     0.165600000000     0.968600000000    -1.4133     
O006     O      0.420850000000     0.151850000000     0.981133333333    -1.44353    
O1       O      0.385850000000     0.190700000000     0.933633333333    -1.36866    
O2       O      0.380300000000     0.189200000000     0.681266666667    -1.4507     
C2       C      0.366400000000     0.192500000000     0.714833333333     1.18299    
C4       C      0.404100000000     0.191000000000     0.903900000000     1.08758    
C1       C      0.416050000000     0.221450000000     0.887300000000    -0.437532   
C6       C      0.367700000000     0.221850000000     0.738666666667    -0.64944    
C8       C      0.440100000000     0.222350000000     0.858966666667     0.28473    
H8       H      0.448500000000     0.200000000000     0.848333333333    -0.0299988  
C9       C      0.362350000000     0.222850000000     0.782066666667     0.515536   
H9       H      0.359233000000     0.203595000000     0.796433000000    -0.13695    
Al01     Al     0.406870000000     0.877040000000     0.223266666667     5.95205    
O002     O      0.379705000000     0.875350000000     0.178766666667    -2.15121    
O003     O      0.415600000000     0.833250000000     0.218600000000    -1.42368    
O006     O      0.401850000000     0.920850000000     0.231133333333    -1.44469    
O1       O      0.440700000000     0.885850000000     0.183633333333    -1.37508    
O2       O      0.439200000000     0.880300000000     0.264600000000    -1.45067    
C2       C      0.442500000000     0.866400000000     0.298166666667     1.18292    
C4       C      0.441000000000     0.904100000000     0.153900000000     1.09099    
C1       C      0.471450000000     0.916050000000     0.137300000000    -0.438802   
C5       C      0.000000000000     0.872300000000     0.301500000000     0.57478    
C7       C      0.000000000000     0.861450000000     0.054366666667    -0.617215   
H7       H      0.000000000000     0.860297500000     0.083932333333     0.240096   
C3       C      0.000000000000     0.904450000000     0.155300000000     0.277951   
C6       C      0.471850000000     0.867700000000     0.322000000000    -0.649534   
C8       C      0.472350000000     0.940100000000     0.108966666667     0.286676   
H8       H      0.450000000000     0.948500000000     0.098333333333    -0.0293298  
C9       C      0.472850000000     0.862350000000     0.032066666667     0.559173   
H9       H      0.453595000000     0.859233000000     0.046433000000    -0.148566   
C13      C      0.000000000000     0.951050000000     0.095500000000    -0.330625   
H13      H      0.000000000000     0.968000000000     0.073666666667     0.121299   
H5       H      0.000000000000     0.876000000000     0.273000000000    -0.146446   
Al01     Al     0.122960000000     0.656870000000     0.306600000000     5.95216    
O002     O      0.124650000000     0.629705000000     0.262100000000    -2.15146    
O003     O      0.166750000000     0.665600000000     0.301933333333    -1.42373    
O006     O      0.079150000000     0.651850000000     0.314466666667    -1.44484    
O1       O      0.114150000000     0.690700000000     0.266966666667    -1.37516    
O2       O      0.119700000000     0.689200000000     0.014600000000    -1.43337    
C2       C      0.133600000000     0.692500000000     0.048166666667     1.17693    
C4       C      0.095900000000     0.691000000000     0.237233333333     1.09094    
C1       C      0.083950000000     0.721450000000     0.220633333333    -0.438948   
C5       C      0.127700000000     0.750000000000     0.051500000000     0.570831   
C7       C      0.138550000000     0.750000000000     0.137700000000    -0.572598   
H7       H      0.139702500000     0.750000000000     0.167265666667     0.224774   
C3       C      0.095550000000     0.750000000000     0.238633333333     0.279322   
C6       C      0.132300000000     0.721850000000     0.072000000000    -0.64292    
C8       C      0.059900000000     0.722350000000     0.192300000000     0.286043   
H8       H      0.051500000000     0.700000000000     0.181666666667    -0.0302829  
C9       C      0.137650000000     0.722850000000     0.115400000000     0.511192   
H9       H      0.140767000000     0.703595000000     0.129766333333    -0.135291   
C13      C      0.048950000000     0.750000000000     0.178833333333    -0.328996   
H13      H      0.032000000000     0.750000000000     0.157000000000     0.119349   
H5       H      0.124000000000     0.750000000000     0.023000000000    -0.141503   
Al01     Al     0.343130000000     0.872960000000     0.056600000000     5.94315    
O002     O      0.370295000000     0.874650000000     0.012100000000    -2.13364    
O003     O      0.334400000000     0.916750000000     0.051933333333    -1.42035    
O006     O      0.348150000000     0.829150000000     0.064466666667    -1.43946    
O1       O      0.309300000000     0.864150000000     0.016966666667    -1.35826    
O2       O      0.310800000000     0.869700000000     0.097933333333    -1.44852    
C2       C      0.307500000000     0.883600000000     0.131500000000     1.18195    
C4       C      0.309000000000     0.845900000000     0.320566666667     1.09099    
C1       C      0.278550000000     0.833950000000     0.303966666667    -0.438944   
C5       C      0.250000000000     0.877700000000     0.134833333333     0.575078   
C7       C      0.250000000000     0.888550000000     0.221033333333    -0.576549   
H7       H      0.250000000000     0.889702500000     0.250599000000     0.226021   
C3       C      0.250000000000     0.845550000000     0.321966666667     0.279369   
C6       C      0.278150000000     0.882300000000     0.155333333333    -0.648284   
C8       C      0.277650000000     0.809900000000     0.275633333333     0.286069   
H8       H      0.300000000000     0.801500000000     0.265000000000    -0.0302738  
C9       C      0.277150000000     0.887650000000     0.198733333333     0.514712   
H9       H      0.296405000000     0.890767000000     0.213099666667    -0.136705   
C13      C      0.250000000000     0.798950000000     0.262166666667    -0.328955   
H13      H      0.250000000000     0.782000000000     0.240333333333     0.11931    
H5       H      0.250000000000     0.874000000000     0.106333333333    -0.145129   
Al01     Al     0.127040000000     0.593130000000     0.139933333333     5.95093    
O002     O      0.125350000000     0.620295000000     0.095433333333    -2.14911    
O003     O      0.083250000000     0.584400000000     0.135266666667    -1.42312    
O006     O      0.170850000000     0.598150000000     0.147800000000    -1.44428    
O1       O      0.135850000000     0.559300000000     0.100300000000    -1.37364    
O2       O      0.130300000000     0.560800000000     0.181266666667    -1.4505     
C2       C      0.116400000000     0.557500000000     0.214833333333     1.18281    
C4       C      0.154100000000     0.559000000000     0.070566666667     1.08838    
C1       C      0.166050000000     0.528550000000     0.053966666667    -0.430919   
C5       C      0.122300000000     0.500000000000     0.218166666667     0.576087   
C7       C      0.111450000000     0.500000000000     0.304366666667    -0.577482   
H7       H      0.110297500000     0.500000000000     0.000599000000     0.250718   
C3       C      0.154450000000     0.500000000000     0.071966666667     0.275081   
C6       C      0.117700000000     0.528150000000     0.238666666667    -0.649498   
C8       C      0.190100000000     0.527650000000     0.025633333333     0.271819   
H8       H      0.198500000000     0.550000000000     0.015000000000    -0.0232539  
C9       C      0.112350000000     0.527150000000     0.282066666667     0.51546    
H9       H      0.109233000000     0.546405000000     0.296433000000    -0.137045   
C13      C      0.201050000000     0.500000000000     0.012166666667    -0.297232   
H13      H      0.218000000000     0.500000000000     0.323666666667     0.1191     
H5       H      0.126000000000     0.500000000000     0.189666666667    -0.146473   
Al01     Al     0.093130000000     0.877040000000     0.223266666667     5.95199    
O002     O      0.120295000000     0.875350000000     0.178766666667    -2.1512     
O003     O      0.084400000000     0.833250000000     0.218600000000    -1.42371    
O006     O      0.098150000000     0.920850000000     0.231133333333    -1.44471    
O1       O      0.059300000000     0.885850000000     0.183633333333    -1.37514    
O2       O      0.060800000000     0.880300000000     0.264600000000    -1.45073    
C2       C      0.057500000000     0.866400000000     0.298166666667     1.18287    
C4       C      0.059000000000     0.904100000000     0.153900000000     1.09098    
C1       C      0.028550000000     0.916050000000     0.137300000000    -0.438903   
C6       C      0.028150000000     0.867700000000     0.322000000000    -0.649587   
C8       C      0.027650000000     0.940100000000     0.108966666667     0.287278   
H8       H      0.050000000000     0.948500000000     0.098333333333    -0.0295467  
C9       C      0.027150000000     0.862350000000     0.032066666667     0.559707   
H9       H      0.046405000000     0.859233000000     0.046433000000    -0.148808   
Al01     Al     0.122960000000     0.843130000000     0.306600000000     5.95218    
O002     O      0.124650000000     0.870295000000     0.262100000000    -2.15145    
O003     O      0.166750000000     0.834400000000     0.301933333333    -1.42374    
O006     O      0.079150000000     0.848150000000     0.314466666667    -1.44484    
O1       O      0.114150000000     0.809300000000     0.266966666667    -1.37517    
O2       O      0.119700000000     0.810800000000     0.014600000000    -1.43339    
C2       C      0.133600000000     0.807500000000     0.048166666667     1.17694    
C4       C      0.095900000000     0.809000000000     0.237233333333     1.09094    
C1       C      0.083950000000     0.778550000000     0.220633333333    -0.43895    
C6       C      0.132300000000     0.778150000000     0.072000000000    -0.642924   
C8       C      0.059900000000     0.777650000000     0.192300000000     0.286043   
H8       H      0.051500000000     0.800000000000     0.181666666667    -0.0302837  
C9       C      0.137650000000     0.777150000000     0.115400000000     0.511193   
H9       H      0.140767000000     0.796405000000     0.129766333333    -0.135293   
Al01     Al     0.156870000000     0.872960000000     0.056600000000     5.94317    
O002     O      0.129705000000     0.874650000000     0.012100000000    -2.13367    
O003     O      0.165600000000     0.916750000000     0.051933333333    -1.42035    
O006     O      0.151850000000     0.829150000000     0.064466666667    -1.43947    
O1       O      0.190700000000     0.864150000000     0.016966666667    -1.35827    
O2       O      0.189200000000     0.869700000000     0.097933333333    -1.44852    
C2       C      0.192500000000     0.883600000000     0.131500000000     1.18196    
C4       C      0.191000000000     0.845900000000     0.320566666667     1.09099    
C1       C      0.221450000000     0.833950000000     0.303966666667    -0.438943   
C6       C      0.221850000000     0.882300000000     0.155333333333    -0.648283   
C8       C      0.222350000000     0.809900000000     0.275633333333     0.28607    
H8       H      0.200000000000     0.801500000000     0.265000000000    -0.0302713  
C9       C      0.222850000000     0.887650000000     0.198733333333     0.514713   
H9       H      0.203595000000     0.890767000000     0.213099666667    -0.136702   
Al01     Al     0.127040000000     0.906870000000     0.139933333333     5.9509     
O002     O      0.125350000000     0.879705000000     0.095433333333    -2.14911    
O003     O      0.083250000000     0.915600000000     0.135266666667    -1.42305    
O006     O      0.170850000000     0.901850000000     0.147800000000    -1.44422    
O1       O      0.135850000000     0.940700000000     0.100300000000    -1.37338    
O2       O      0.130300000000     0.939200000000     0.181266666667    -1.45025    
C2       C      0.116400000000     0.942500000000     0.214833333333     1.1827     
C4       C      0.154100000000     0.941000000000     0.070566666667     1.0883     
C1       C      0.166050000000     0.971450000000     0.053966666667    -0.430245   
C6       C      0.117700000000     0.971850000000     0.238666666667    -0.64874    
C8       C      0.190100000000     0.972350000000     0.025633333333     0.273429   
H8       H      0.198500000000     0.950000000000     0.015000000000    -0.023522   
C9       C      0.112350000000     0.972850000000     0.282066666667     0.517206   
H9       H      0.109233000000     0.953595000000     0.296433000000    -0.137467   
Al01     Al     0.156870000000     0.627040000000     0.056600000000     5.94311    
O002     O      0.129705000000     0.625350000000     0.012100000000    -2.13366    
O003     O      0.165600000000     0.583250000000     0.051933333333    -1.42039    
O006     O      0.151850000000     0.670850000000     0.064466666667    -1.43945    
O1       O      0.190700000000     0.635850000000     0.016966666667    -1.35827    
O2       O      0.189200000000     0.630300000000     0.097933333333    -1.44851    
C2       C      0.192500000000     0.616400000000     0.131500000000     1.18195    
C4       C      0.191000000000     0.654100000000     0.320566666667     1.09098    
C1       C      0.221450000000     0.666050000000     0.303966666667    -0.43894    
C5       C      0.250000000000     0.622300000000     0.134833333333     0.575076   
C7       C      0.250000000000     0.611450000000     0.221033333333    -0.576603   
H7       H      0.250000000000     0.610297500000     0.250599000000     0.22598    
C3       C      0.250000000000     0.654450000000     0.321966666667     0.279339   
C6       C      0.221850000000     0.617700000000     0.155333333333    -0.648327   
C8       C      0.222350000000     0.690100000000     0.275633333333     0.286067   
H8       H      0.200000000000     0.698500000000     0.265000000000    -0.0302704  
C9       C      0.222850000000     0.612350000000     0.198733333333     0.514696   
H9       H      0.203595000000     0.609233000000     0.213099666667    -0.136741   
C13      C      0.250000000000     0.701050000000     0.262166666667    -0.328951   
H13      H      0.250000000000     0.718000000000     0.240333333333     0.11931    
H5       H      0.250000000000     0.626000000000     0.106333333333    -0.145151   
Al01     Al     0.372960000000     0.906870000000     0.139933333333     5.95089    
O002     O      0.374650000000     0.879705000000     0.095433333333    -2.1491     
O003     O      0.416750000000     0.915600000000     0.135266666667    -1.42303    
O006     O      0.329150000000     0.901850000000     0.147800000000    -1.44423    
O1       O      0.364150000000     0.940700000000     0.100300000000    -1.37338    
O2       O      0.369700000000     0.939200000000     0.181266666667    -1.45025    
C2       C      0.383600000000     0.942500000000     0.214833333333     1.1827     
C4       C      0.345900000000     0.941000000000     0.070566666667     1.0883     
C1       C      0.333950000000     0.971450000000     0.053966666667    -0.430241   
C5       C      0.377700000000     0.500000000000     0.218166666667     0.576091   
C7       C      0.388550000000     0.500000000000     0.304366666667    -0.57745    
H7       H      0.389702500000     0.500000000000     0.000599000000     0.250771   
C3       C      0.345550000000     0.500000000000     0.071966666667     0.275085   
C6       C      0.382300000000     0.971850000000     0.238666666667    -0.648714   
C8       C      0.309900000000     0.972350000000     0.025633333333     0.273423   
H8       H      0.301500000000     0.950000000000     0.015000000000    -0.0235207  
C9       C      0.387650000000     0.972850000000     0.282066666667     0.517224   
H9       H      0.390767000000     0.953595000000     0.296433000000    -0.137449   
C13      C      0.298950000000     0.500000000000     0.012166666667    -0.297222   
H13      H      0.282000000000     0.500000000000     0.323666666667     0.119099   
H5       H      0.374000000000     0.500000000000     0.189666666667    -0.146463   
Al01     Al     0.093130000000     0.622960000000     0.223266666667     5.95196    
O002     O      0.120295000000     0.624650000000     0.178766666667    -2.15119    
O003     O      0.084400000000     0.666750000000     0.218600000000    -1.4237     
O006     O      0.098150000000     0.579150000000     0.231133333333    -1.44478    
O1       O      0.059300000000     0.614150000000     0.183633333333    -1.37515    
O2       O      0.060800000000     0.619700000000     0.264600000000    -1.45075    
C2       C      0.057500000000     0.633600000000     0.298166666667     1.18286    
C4       C      0.059000000000     0.595900000000     0.153900000000     1.09096    
C1       C      0.028550000000     0.583950000000     0.137300000000    -0.438928   
C5       C      0.000000000000     0.627700000000     0.301500000000     0.574769   
C7       C      0.000000000000     0.638550000000     0.054366666667    -0.617282   
H7       H      0.000000000000     0.639702500000     0.083932333333     0.24012    
C3       C      0.000000000000     0.595550000000     0.155300000000     0.277904   
C6       C      0.028150000000     0.632300000000     0.322000000000    -0.649615   
C8       C      0.027650000000     0.559900000000     0.108966666667     0.287196   
H8       H      0.050000000000     0.551500000000     0.098333333333    -0.0296776  
C9       C      0.027150000000     0.637650000000     0.032066666667     0.559764   
H9       H      0.046405000000     0.640767000000     0.046433000000    -0.148831   
C13      C      0.000000000000     0.548950000000     0.095500000000    -0.330674   
H13      H      0.000000000000     0.532000000000     0.073666666667     0.121078   
H5       H      0.000000000000     0.624000000000     0.273000000000    -0.146469   
Al01     Al     0.377040000000     0.843130000000     0.306600000000     5.95218    
O002     O      0.375350000000     0.870295000000     0.262100000000    -2.15147    
O003     O      0.333250000000     0.834400000000     0.301933333333    -1.42374    
O006     O      0.420850000000     0.848150000000     0.314466666667    -1.4448     
O1       O      0.385850000000     0.809300000000     0.266966666667    -1.37516    
O2       O      0.380300000000     0.810800000000     0.014600000000    -1.43334    
C2       C      0.366400000000     0.807500000000     0.048166666667     1.17693    
C4       C      0.404100000000     0.809000000000     0.237233333333     1.09098    
C1       C      0.416050000000     0.778550000000     0.220633333333    -0.438946   
C5       C      0.372300000000     0.750000000000     0.051500000000     0.570828   
C7       C      0.361450000000     0.750000000000     0.137700000000    -0.572578   
H7       H      0.360297500000     0.750000000000     0.167265666667     0.224762   
C3       C      0.404450000000     0.750000000000     0.238633333333     0.279384   
C6       C      0.367700000000     0.778150000000     0.072000000000    -0.642889   
C8       C      0.440100000000     0.777650000000     0.192300000000     0.286172   
H8       H      0.448500000000     0.800000000000     0.181666666667    -0.0301699  
C9       C      0.362350000000     0.777150000000     0.115400000000     0.511181   
H9       H      0.359233000000     0.796405000000     0.129766333333    -0.135288   
C13      C      0.451050000000     0.750000000000     0.178833333333    -0.328974   
H13      H      0.468000000000     0.750000000000     0.157000000000     0.119637   
H5       H      0.376000000000     0.750000000000     0.023000000000    -0.141472   
Al01     Al     0.343130000000     0.627040000000     0.056600000000     5.94309    
O002     O      0.370295000000     0.625350000000     0.012100000000    -2.13363    
O003     O      0.334400000000     0.583250000000     0.051933333333    -1.42039    
O006     O      0.348150000000     0.670850000000     0.064466666667    -1.43945    
O1       O      0.309300000000     0.635850000000     0.016966666667    -1.35826    
O2       O      0.310800000000     0.630300000000     0.097933333333    -1.44851    
C2       C      0.307500000000     0.616400000000     0.131500000000     1.18195    
C4       C      0.309000000000     0.654100000000     0.320566666667     1.09098    
C1       C      0.278550000000     0.666050000000     0.303966666667    -0.438942   
C6       C      0.278150000000     0.617700000000     0.155333333333    -0.648328   
C8       C      0.277650000000     0.690100000000     0.275633333333     0.286066   
H8       H      0.300000000000     0.698500000000     0.265000000000    -0.0302729  
C9       C      0.277150000000     0.612350000000     0.198733333333     0.514695   
H9       H      0.296405000000     0.609233000000     0.213099666667    -0.136743   
Al01     Al     0.372960000000     0.593130000000     0.139933333333     5.95093    
O002     O      0.374650000000     0.620295000000     0.095433333333    -2.1491     
O003     O      0.416750000000     0.584400000000     0.135266666667    -1.4231     
O006     O      0.329150000000     0.598150000000     0.147800000000    -1.44428    
O1       O      0.364150000000     0.559300000000     0.100300000000    -1.37364    
O2       O      0.369700000000     0.560800000000     0.181266666667    -1.4505     
C2       C      0.383600000000     0.557500000000     0.214833333333     1.18281    
C4       C      0.345900000000     0.559000000000     0.070566666667     1.08837    
C1       C      0.333950000000     0.528550000000     0.053966666667    -0.430917   
C6       C      0.382300000000     0.528150000000     0.238666666667    -0.649473   
C8       C      0.309900000000     0.527650000000     0.025633333333     0.271812   
H8       H      0.301500000000     0.550000000000     0.015000000000    -0.0232525  
C9       C      0.387650000000     0.527150000000     0.282066666667     0.515475   
H9       H      0.390767000000     0.546405000000     0.296433000000    -0.137026   
Al01     Al     0.406870000000     0.622960000000     0.223266666667     5.95201    
O002     O      0.379705000000     0.624650000000     0.178766666667    -2.1512     
O003     O      0.415600000000     0.666750000000     0.218600000000    -1.42367    
O006     O      0.401850000000     0.579150000000     0.231133333333    -1.44475    
O1       O      0.440700000000     0.614150000000     0.183633333333    -1.37508    
O2       O      0.439200000000     0.619700000000     0.264600000000    -1.4507     
C2       C      0.442500000000     0.633600000000     0.298166666667     1.18291    
C4       C      0.441000000000     0.595900000000     0.153900000000     1.09097    
C1       C      0.471450000000     0.583950000000     0.137300000000    -0.438827   
C6       C      0.471850000000     0.632300000000     0.322000000000    -0.649562   
C8       C      0.472350000000     0.559900000000     0.108966666667     0.286593   
H8       H      0.450000000000     0.551500000000     0.098333333333    -0.0294604  
C9       C      0.472850000000     0.637650000000     0.032066666667     0.55923    
H9       H      0.453595000000     0.640767000000     0.046433000000    -0.148589   
Al01     Al     0.377040000000     0.656870000000     0.306600000000     5.95216    
O002     O      0.375350000000     0.629705000000     0.262100000000    -2.15147    
O003     O      0.333250000000     0.665600000000     0.301933333333    -1.42374    
O006     O      0.420850000000     0.651850000000     0.314466666667    -1.4448     
O1       O      0.385850000000     0.690700000000     0.266966666667    -1.37516    
O2       O      0.380300000000     0.689200000000     0.014600000000    -1.43332    
C2       C      0.366400000000     0.692500000000     0.048166666667     1.17692    
C4       C      0.404100000000     0.691000000000     0.237233333333     1.09097    
C1       C      0.416050000000     0.721450000000     0.220633333333    -0.438945   
C6       C      0.367700000000     0.721850000000     0.072000000000    -0.642885   
C8       C      0.440100000000     0.722350000000     0.192300000000     0.286172   
H8       H      0.448500000000     0.700000000000     0.181666666667    -0.0301691  
C9       C      0.362350000000     0.722850000000     0.115400000000     0.51118    
H9       H      0.359233000000     0.703595000000     0.129766333333    -0.135286   
Al01     Al     0.406870000000     0.877040000000     0.556600000000     5.95241    
O002     O      0.379705000000     0.875350000000     0.512100000000    -2.15153    
O003     O      0.415600000000     0.833250000000     0.551933333333    -1.42377    
O006     O      0.401850000000     0.920850000000     0.564466666667    -1.44473    
O1       O      0.440700000000     0.885850000000     0.516966666667    -1.37518    
O2       O      0.439200000000     0.880300000000     0.597933333333    -1.45069    
C2       C      0.442500000000     0.866400000000     0.631500000000     1.183      
C4       C      0.441000000000     0.904100000000     0.487233333333     1.09102    
C1       C      0.471450000000     0.916050000000     0.470633333333    -0.438899   
C5       C      0.000000000000     0.872300000000     0.634833333333     0.574825   
C7       C      0.000000000000     0.861450000000     0.387700000000    -0.579715   
H7       H      0.000000000000     0.860297500000     0.417265666667     0.226669   
C3       C      0.000000000000     0.904450000000     0.488633333333     0.2782     
C6       C      0.471850000000     0.867700000000     0.655333333333    -0.649485   
C8       C      0.472350000000     0.940100000000     0.442300000000     0.286099   
H8       H      0.450000000000     0.948500000000     0.431666666667    -0.0301872  
C9       C      0.472850000000     0.862350000000     0.365400000000     0.515556   
H9       H      0.453595000000     0.859233000000     0.379766333333    -0.137034   
C13      C      0.000000000000     0.951050000000     0.428833333333    -0.330874   
H13      H      0.000000000000     0.968000000000     0.407000000000     0.119551   
H5       H      0.000000000000     0.876000000000     0.606333333333    -0.14641    
Al01     Al     0.122960000000     0.656870000000     0.639933333333     5.95244    
O002     O      0.124650000000     0.629705000000     0.595433333333    -2.15152    
O003     O      0.166750000000     0.665600000000     0.635266666667    -1.42376    
O006     O      0.079150000000     0.651850000000     0.647800000000    -1.44484    
O1       O      0.114150000000     0.690700000000     0.600300000000    -1.37519    
O2       O      0.119700000000     0.689200000000     0.347933333333    -1.45074    
C2       C      0.133600000000     0.692500000000     0.381500000000     1.18294    
C4       C      0.095900000000     0.691000000000     0.570566666667     1.09099    
C1       C      0.083950000000     0.721450000000     0.553966666667    -0.438923   
C5       C      0.127700000000     0.750000000000     0.384833333333     0.576207   
C7       C      0.138550000000     0.750000000000     0.471033333333    -0.577519   
H7       H      0.139702500000     0.750000000000     0.500599000000     0.226317   
C3       C      0.095550000000     0.750000000000     0.571966666667     0.279319   
C6       C      0.132300000000     0.721850000000     0.405333333333    -0.649579   
C8       C      0.059900000000     0.722350000000     0.525633333333     0.285901   
H8       H      0.051500000000     0.700000000000     0.515000000000    -0.0304239  
C9       C      0.137650000000     0.722850000000     0.448733333333     0.515576   
H9       H      0.140767000000     0.703595000000     0.463099666667    -0.137035   
C13      C      0.048950000000     0.750000000000     0.512166666667    -0.328942   
H13      H      0.032000000000     0.750000000000     0.490333333333     0.118829   
H5       H      0.124000000000     0.750000000000     0.356333333333    -0.146581   
Al01     Al     0.343130000000     0.872960000000     0.389933333333     5.95229    
O002     O      0.370295000000     0.874650000000     0.345433333333    -2.15149    
O003     O      0.334400000000     0.916750000000     0.385266666667    -1.42371    
O006     O      0.348150000000     0.829150000000     0.397800000000    -1.44481    
O1       O      0.309300000000     0.864150000000     0.350300000000    -1.37517    
O2       O      0.310800000000     0.869700000000     0.431266666667    -1.45071    
C2       C      0.307500000000     0.883600000000     0.464833333333     1.18296    
C4       C      0.309000000000     0.845900000000     0.653900000000     1.09105    
C1       C      0.278550000000     0.833950000000     0.637300000000    -0.438916   
C5       C      0.250000000000     0.877700000000     0.468166666667     0.576222   
C7       C      0.250000000000     0.888550000000     0.554366666667    -0.577433   
H7       H      0.250000000000     0.889702500000     0.583932333333     0.226357   
C3       C      0.250000000000     0.845550000000     0.655300000000     0.279434   
C6       C      0.278150000000     0.882300000000     0.488666666667    -0.649492   
C8       C      0.277650000000     0.809900000000     0.608966666667     0.28605    
H8       H      0.300000000000     0.801500000000     0.598333333333    -0.0302985  
C9       C      0.277150000000     0.887650000000     0.532066666667     0.515597   
H9       H      0.296405000000     0.890767000000     0.546433000000    -0.136982   
C13      C      0.250000000000     0.798950000000     0.595500000000    -0.328914   
H13      H      0.250000000000     0.782000000000     0.573666666667     0.119137   
H5       H      0.250000000000     0.874000000000     0.439666666667    -0.146526   
Al01     Al     0.127040000000     0.593130000000     0.473266666667     5.95231    
O002     O      0.125350000000     0.620295000000     0.428766666667    -2.15152    
O003     O      0.083250000000     0.584400000000     0.468600000000    -1.42378    
O006     O      0.170850000000     0.598150000000     0.481133333333    -1.4448     
O1       O      0.135850000000     0.559300000000     0.433633333333    -1.37519    
O2       O      0.130300000000     0.560800000000     0.514600000000    -1.45071    
C2       C      0.116400000000     0.557500000000     0.548166666667     1.18296    
C4       C      0.154100000000     0.559000000000     0.403900000000     1.09099    
C1       C      0.166050000000     0.528550000000     0.387300000000    -0.438926   
C5       C      0.122300000000     0.500000000000     0.551500000000     0.576229   
C7       C      0.111450000000     0.500000000000     0.637700000000    -0.577513   
H7       H      0.110297500000     0.500000000000     0.333932333333     0.226246   
C3       C      0.154450000000     0.500000000000     0.405300000000     0.279334   
C6       C      0.117700000000     0.528150000000     0.572000000000    -0.649553   
C8       C      0.190100000000     0.527650000000     0.358966666667     0.286006   
H8       H      0.198500000000     0.550000000000     0.348333333333    -0.0303245  
C9       C      0.112350000000     0.527150000000     0.615400000000     0.51558    
H9       H      0.109233000000     0.546405000000     0.629766333333    -0.13703    
C13      C      0.201050000000     0.500000000000     0.345500000000    -0.328927   
H13      H      0.218000000000     0.500000000000     0.657000000000     0.119147   
H5       H      0.126000000000     0.500000000000     0.523000000000    -0.146549   
Al01     Al     0.093130000000     0.877040000000     0.556600000000     5.95235    
O002     O      0.120295000000     0.875350000000     0.512100000000    -2.15152    
O003     O      0.084400000000     0.833250000000     0.551933333333    -1.4238     
O006     O      0.098150000000     0.920850000000     0.564466666667    -1.44475    
O1       O      0.059300000000     0.885850000000     0.516966666667    -1.37524    
O2       O      0.060800000000     0.880300000000     0.597933333333    -1.45074    
C2       C      0.057500000000     0.866400000000     0.631500000000     1.18294    
C4       C      0.059000000000     0.904100000000     0.487233333333     1.09101    
C1       C      0.028550000000     0.916050000000     0.470633333333    -0.439001   
C6       C      0.028150000000     0.867700000000     0.655333333333    -0.649537   
C8       C      0.027650000000     0.940100000000     0.442300000000     0.286704   
H8       H      0.050000000000     0.948500000000     0.431666666667    -0.0304027  
C9       C      0.027150000000     0.862350000000     0.365400000000     0.516218   
H9       H      0.046405000000     0.859233000000     0.379766333333    -0.137313   
Al01     Al     0.122960000000     0.843130000000     0.639933333333     5.95246    
O002     O      0.124650000000     0.870295000000     0.595433333333    -2.15151    
O003     O      0.166750000000     0.834400000000     0.635266666667    -1.42376    
O006     O      0.079150000000     0.848150000000     0.647800000000    -1.44484    
O1       O      0.114150000000     0.809300000000     0.600300000000    -1.37519    
O2       O      0.119700000000     0.810800000000     0.347933333333    -1.45075    
C2       C      0.133600000000     0.807500000000     0.381500000000     1.18295    
C4       C      0.095900000000     0.809000000000     0.570566666667     1.09099    
C1       C      0.083950000000     0.778550000000     0.553966666667    -0.438925   
C6       C      0.132300000000     0.778150000000     0.405333333333    -0.649581   
C8       C      0.059900000000     0.777650000000     0.525633333333     0.285901   
H8       H      0.051500000000     0.800000000000     0.515000000000    -0.0304246  
C9       C      0.137650000000     0.777150000000     0.448733333333     0.515577   
H9       H      0.140767000000     0.796405000000     0.463099666667    -0.137037   
Al01     Al     0.156870000000     0.872960000000     0.389933333333     5.95229    
O002     O      0.129705000000     0.874650000000     0.345433333333    -2.15149    
O003     O      0.165600000000     0.916750000000     0.385266666667    -1.42371    
O006     O      0.151850000000     0.829150000000     0.397800000000    -1.44481    
O1       O      0.190700000000     0.864150000000     0.350300000000    -1.37517    
O2       O      0.189200000000     0.869700000000     0.431266666667    -1.45071    
C2       C      0.192500000000     0.883600000000     0.464833333333     1.18296    
C4       C      0.191000000000     0.845900000000     0.653900000000     1.09105    
C1       C      0.221450000000     0.833950000000     0.637300000000    -0.438914   
C6       C      0.221850000000     0.882300000000     0.488666666667    -0.649491   
C8       C      0.222350000000     0.809900000000     0.608966666667     0.286051   
H8       H      0.200000000000     0.801500000000     0.598333333333    -0.030296   
C9       C      0.222850000000     0.887650000000     0.532066666667     0.515597   
H9       H      0.203595000000     0.890767000000     0.546433000000    -0.136979   
Al01     Al     0.127040000000     0.906870000000     0.473266666667     5.95227    
O002     O      0.125350000000     0.879705000000     0.428766666667    -2.15152    
O003     O      0.083250000000     0.915600000000     0.468600000000    -1.42371    
O006     O      0.170850000000     0.901850000000     0.481133333333    -1.44474    
O1       O      0.135850000000     0.940700000000     0.433633333333    -1.37492    
O2       O      0.130300000000     0.939200000000     0.514600000000    -1.45046    
C2       C      0.116400000000     0.942500000000     0.548166666667     1.18285    
C4       C      0.154100000000     0.941000000000     0.403900000000     1.0909     
C1       C      0.166050000000     0.971450000000     0.387300000000    -0.438227   
C6       C      0.117700000000     0.971850000000     0.572000000000    -0.648794   
C8       C      0.190100000000     0.972350000000     0.358966666667     0.287565   
H8       H      0.198500000000     0.950000000000     0.348333333333    -0.0305709  
C9       C      0.112350000000     0.972850000000     0.615400000000     0.517323   
H9       H      0.109233000000     0.953595000000     0.629766333333    -0.137452   
Al01     Al     0.156870000000     0.627040000000     0.389933333333     5.95225    
O002     O      0.129705000000     0.625350000000     0.345433333333    -2.15151    
O003     O      0.165600000000     0.583250000000     0.385266666667    -1.42376    
O006     O      0.151850000000     0.670850000000     0.397800000000    -1.4448     
O1       O      0.190700000000     0.635850000000     0.350300000000    -1.37518    
O2       O      0.189200000000     0.630300000000     0.431266666667    -1.45071    
C2       C      0.192500000000     0.616400000000     0.464833333333     1.18296    
C4       C      0.191000000000     0.654100000000     0.653900000000     1.09104    
C1       C      0.221450000000     0.666050000000     0.637300000000    -0.438912   
C5       C      0.250000000000     0.622300000000     0.468166666667     0.576222   
C7       C      0.250000000000     0.611450000000     0.554366666667    -0.577487   
H7       H      0.250000000000     0.610297500000     0.583932333333     0.226317   
C3       C      0.250000000000     0.654450000000     0.655300000000     0.279404   
C6       C      0.221850000000     0.617700000000     0.488666666667    -0.649536   
C8       C      0.222350000000     0.690100000000     0.608966666667     0.286048   
H8       H      0.200000000000     0.698500000000     0.598333333333    -0.030295   
C9       C      0.222850000000     0.612350000000     0.532066666667     0.515581   
H9       H      0.203595000000     0.609233000000     0.546433000000    -0.137018   
C13      C      0.250000000000     0.701050000000     0.595500000000    -0.328911   
H13      H      0.250000000000     0.718000000000     0.573666666667     0.119136   
H5       H      0.250000000000     0.626000000000     0.439666666667    -0.146549   
Al01     Al     0.372960000000     0.906870000000     0.473266666667     5.95227    
O002     O      0.374650000000     0.879705000000     0.428766666667    -2.15151    
O003     O      0.416750000000     0.915600000000     0.468600000000    -1.42369    
O006     O      0.329150000000     0.901850000000     0.481133333333    -1.44474    
O1       O      0.364150000000     0.940700000000     0.433633333333    -1.37492    
O2       O      0.369700000000     0.939200000000     0.514600000000    -1.45046    
C2       C      0.383600000000     0.942500000000     0.548166666667     1.18286    
C4       C      0.345900000000     0.941000000000     0.403900000000     1.0909     
C1       C      0.333950000000     0.971450000000     0.387300000000    -0.438227   
C5       C      0.377700000000     0.500000000000     0.551500000000     0.576234   
C7       C      0.388550000000     0.500000000000     0.637700000000    -0.577481   
H7       H      0.389702500000     0.500000000000     0.333932333333     0.226261   
C3       C      0.345550000000     0.500000000000     0.405300000000     0.279339   
C6       C      0.382300000000     0.971850000000     0.572000000000    -0.648768   
C8       C      0.309900000000     0.972350000000     0.358966666667     0.287563   
H8       H      0.301500000000     0.950000000000     0.348333333333    -0.0305723  
C9       C      0.387650000000     0.972850000000     0.615400000000     0.517341   
H9       H      0.390767000000     0.953595000000     0.629766333333    -0.137433   
C13      C      0.298950000000     0.500000000000     0.345500000000    -0.328929   
H13      H      0.282000000000     0.500000000000     0.657000000000     0.119146   
H5       H      0.374000000000     0.500000000000     0.523000000000    -0.14654    
Al01     Al     0.093130000000     0.622960000000     0.556600000000     5.95232    
O002     O      0.120295000000     0.624650000000     0.512100000000    -2.15151    
O003     O      0.084400000000     0.666750000000     0.551933333333    -1.42379    
O006     O      0.098150000000     0.579150000000     0.564466666667    -1.44482    
O1       O      0.059300000000     0.614150000000     0.516966666667    -1.37525    
O2       O      0.060800000000     0.619700000000     0.597933333333    -1.45077    
C2       C      0.057500000000     0.633600000000     0.631500000000     1.18293    
C4       C      0.059000000000     0.595900000000     0.487233333333     1.09099    
C1       C      0.028550000000     0.583950000000     0.470633333333    -0.439026   
C5       C      0.000000000000     0.627700000000     0.634833333333     0.574814   
C7       C      0.000000000000     0.638550000000     0.387700000000    -0.579732   
H7       H      0.000000000000     0.639702500000     0.417265666667     0.226674   
C3       C      0.000000000000     0.595550000000     0.488633333333     0.278153   
C6       C      0.028150000000     0.632300000000     0.655333333333    -0.649565   
C8       C      0.027650000000     0.559900000000     0.442300000000     0.286621   
H8       H      0.050000000000     0.551500000000     0.431666666667    -0.0305358  
C9       C      0.027150000000     0.637650000000     0.365400000000     0.516217   
H9       H      0.046405000000     0.640767000000     0.379766333333    -0.13732    
C13      C      0.000000000000     0.548950000000     0.428833333333    -0.330923   
H13      H      0.000000000000     0.532000000000     0.407000000000     0.119326   
H5       H      0.000000000000     0.624000000000     0.606333333333    -0.146432   
Al01     Al     0.377040000000     0.843130000000     0.639933333333     5.95246    
O002     O      0.375350000000     0.870295000000     0.595433333333    -2.15153    
O003     O      0.333250000000     0.834400000000     0.635266666667    -1.42377    
O006     O      0.420850000000     0.848150000000     0.647800000000    -1.4448     
O1       O      0.385850000000     0.809300000000     0.600300000000    -1.37519    
O2       O      0.380300000000     0.810800000000     0.347933333333    -1.45072    
C2       C      0.366400000000     0.807500000000     0.381500000000     1.18294    
C4       C      0.404100000000     0.809000000000     0.570566666667     1.09102    
C1       C      0.416050000000     0.778550000000     0.553966666667    -0.438922   
C5       C      0.372300000000     0.750000000000     0.384833333333     0.576211   
C7       C      0.361450000000     0.750000000000     0.471033333333    -0.577505   
H7       H      0.360297500000     0.750000000000     0.500599000000     0.226307   
C3       C      0.404450000000     0.750000000000     0.571966666667     0.279381   
C6       C      0.367700000000     0.778150000000     0.405333333333    -0.649555   
C8       C      0.440100000000     0.777650000000     0.525633333333     0.28603    
H8       H      0.448500000000     0.800000000000     0.515000000000    -0.0303114  
C9       C      0.362350000000     0.777150000000     0.448733333333     0.515571   
H9       H      0.359233000000     0.796405000000     0.463099666667    -0.137034   
C13      C      0.451050000000     0.750000000000     0.512166666667    -0.32892    
H13      H      0.468000000000     0.750000000000     0.490333333333     0.119115   
H5       H      0.376000000000     0.750000000000     0.356333333333    -0.146557   
Al01     Al     0.343130000000     0.627040000000     0.389933333333     5.95224    
O002     O      0.370295000000     0.625350000000     0.345433333333    -2.15151    
O003     O      0.334400000000     0.583250000000     0.385266666667    -1.42376    
O006     O      0.348150000000     0.670850000000     0.397800000000    -1.4448     
O1       O      0.309300000000     0.635850000000     0.350300000000    -1.37518    
O2       O      0.310800000000     0.630300000000     0.431266666667    -1.45071    
C2       C      0.307500000000     0.616400000000     0.464833333333     1.18295    
C4       C      0.309000000000     0.654100000000     0.653900000000     1.09104    
C1       C      0.278550000000     0.666050000000     0.637300000000    -0.438913   
C6       C      0.278150000000     0.617700000000     0.488666666667    -0.649537   
C8       C      0.277650000000     0.690100000000     0.608966666667     0.286048   
H8       H      0.300000000000     0.698500000000     0.598333333333    -0.0302975  
C9       C      0.277150000000     0.612350000000     0.532066666667     0.515581   
H9       H      0.296405000000     0.609233000000     0.546433000000    -0.137021   
Al01     Al     0.372960000000     0.593130000000     0.473266666667     5.9523     
O002     O      0.374650000000     0.620295000000     0.428766666667    -2.15152    
O003     O      0.416750000000     0.584400000000     0.468600000000    -1.42376    
O006     O      0.329150000000     0.598150000000     0.481133333333    -1.4448     
O1       O      0.364150000000     0.559300000000     0.433633333333    -1.37518    
O2       O      0.369700000000     0.560800000000     0.514600000000    -1.45071    
C2       C      0.383600000000     0.557500000000     0.548166666667     1.18297    
C4       C      0.345900000000     0.559000000000     0.403900000000     1.09099    
C1       C      0.333950000000     0.528550000000     0.387300000000    -0.438928   
C6       C      0.382300000000     0.528150000000     0.572000000000    -0.649527   
C8       C      0.309900000000     0.527650000000     0.358966666667     0.286004   
H8       H      0.301500000000     0.550000000000     0.348333333333    -0.0303259  
C9       C      0.387650000000     0.527150000000     0.615400000000     0.515595   
H9       H      0.390767000000     0.546405000000     0.629766333333    -0.137011   
Al01     Al     0.406870000000     0.622960000000     0.556600000000     5.95237    
O002     O      0.379705000000     0.624650000000     0.512100000000    -2.15152    
O003     O      0.415600000000     0.666750000000     0.551933333333    -1.42376    
O006     O      0.401850000000     0.579150000000     0.564466666667    -1.4448     
O1       O      0.440700000000     0.614150000000     0.516966666667    -1.37518    
O2       O      0.439200000000     0.619700000000     0.597933333333    -1.45071    
C2       C      0.442500000000     0.633600000000     0.631500000000     1.18298    
C4       C      0.441000000000     0.595900000000     0.487233333333     1.091      
C1       C      0.471450000000     0.583950000000     0.470633333333    -0.438924   
C6       C      0.471850000000     0.632300000000     0.655333333333    -0.649513   
C8       C      0.472350000000     0.559900000000     0.442300000000     0.286014   
H8       H      0.450000000000     0.551500000000     0.431666666667    -0.03032    
C9       C      0.472850000000     0.637650000000     0.365400000000     0.515554   
H9       H      0.453595000000     0.640767000000     0.379766333333    -0.137042   
Al01     Al     0.377040000000     0.656870000000     0.639933333333     5.95244    
O002     O      0.375350000000     0.629705000000     0.595433333333    -2.15153    
O003     O      0.333250000000     0.665600000000     0.635266666667    -1.42376    
O006     O      0.420850000000     0.651850000000     0.647800000000    -1.4448     
O1       O      0.385850000000     0.690700000000     0.600300000000    -1.37518    
O2       O      0.380300000000     0.689200000000     0.347933333333    -1.45071    
C2       C      0.366400000000     0.692500000000     0.381500000000     1.18294    
C4       C      0.404100000000     0.691000000000     0.570566666667     1.09102    
C1       C      0.416050000000     0.721450000000     0.553966666667    -0.43892    
C6       C      0.367700000000     0.721850000000     0.405333333333    -0.649553   
C8       C      0.440100000000     0.722350000000     0.525633333333     0.28603    
H8       H      0.448500000000     0.700000000000     0.515000000000    -0.0303107  
C9       C      0.362350000000     0.722850000000     0.448733333333     0.51557    
H9       H      0.359233000000     0.703595000000     0.463099666667    -0.137032   
Al01     Al     0.406870000000     0.877040000000     0.889933333333     5.95183    
O002     O      0.379705000000     0.875350000000     0.845433333333    -2.15166    
O003     O      0.415600000000     0.833250000000     0.885266666667    -1.42236    
O006     O      0.401850000000     0.920850000000     0.897800000000    -1.44673    
O1       O      0.440700000000     0.885850000000     0.850300000000    -1.37489    
O2       O      0.439200000000     0.880300000000     0.931266666667    -1.45318    
C2       C      0.442500000000     0.866400000000     0.964833333333     1.19114    
C4       C      0.441000000000     0.904100000000     0.820566666667     1.09095    
C1       C      0.471450000000     0.916050000000     0.803966666667    -0.438888   
C5       C      0.000000000000     0.872300000000     0.968166666667     0.602321   
C7       C      0.000000000000     0.861450000000     0.721033333333    -0.579663   
H7       H      0.000000000000     0.860297500000     0.750599000000     0.226715   
C3       C      0.000000000000     0.904450000000     0.821966666667     0.278234   
C6       C      0.471850000000     0.867700000000     0.988666666667    -0.684417   
C8       C      0.472350000000     0.940100000000     0.775633333333     0.286069   
H8       H      0.450000000000     0.948500000000     0.765000000000    -0.0301379  
C9       C      0.472850000000     0.862350000000     0.698733333333     0.515603   
H9       H      0.453595000000     0.859233000000     0.713099666667    -0.136991   
C13      C      0.000000000000     0.951050000000     0.762166666667    -0.330857   
H13      H      0.000000000000     0.968000000000     0.740333333333     0.119596   
H5       H      0.000000000000     0.876000000000     0.939666666667    -0.156035   
Al01     Al     0.122960000000     0.656870000000     0.973266666667     5.89807    
O002     O      0.124650000000     0.629705000000     0.928766666667    -2.14387    
O003     O      0.166750000000     0.665600000000     0.968600000000    -1.41329    
O006     O      0.079150000000     0.651850000000     0.981133333333    -1.44356    
O1       O      0.114150000000     0.690700000000     0.933633333333    -1.36866    
O2       O      0.119700000000     0.689200000000     0.681266666667    -1.45074    
C2       C      0.133600000000     0.692500000000     0.714833333333     1.18299    
C4       C      0.095900000000     0.691000000000     0.903900000000     1.08755    
C1       C      0.083950000000     0.721450000000     0.887300000000    -0.43754    
C5       C      0.127700000000     0.750000000000     0.718166666667     0.576206   
C7       C      0.138550000000     0.750000000000     0.804366666667    -0.577348   
H7       H      0.139702500000     0.750000000000     0.833932333333     0.226227   
C3       C      0.095550000000     0.750000000000     0.905300000000     0.276004   
C6       C      0.132300000000     0.721850000000     0.738666666667    -0.649475   
C8       C      0.059900000000     0.722350000000     0.858966666667     0.284597   
H8       H      0.051500000000     0.700000000000     0.848333333333    -0.030118   
C9       C      0.137650000000     0.722850000000     0.782066666667     0.51554    
H9       H      0.140767000000     0.703595000000     0.796433000000    -0.13696    
C13      C      0.048950000000     0.750000000000     0.845500000000    -0.328028   
H13      H      0.032000000000     0.750000000000     0.823666666667     0.118539   
H5       H      0.124000000000     0.750000000000     0.689666666667    -0.146529   
Al01     Al     0.343130000000     0.872960000000     0.723266666667     5.95254    
O002     O      0.370295000000     0.874650000000     0.678766666667    -2.15152    
O003     O      0.334400000000     0.916750000000     0.718600000000    -1.42372    
O006     O      0.348150000000     0.829150000000     0.731133333333    -1.4448     
O1       O      0.309300000000     0.864150000000     0.683633333333    -1.37517    
O2       O      0.310800000000     0.869700000000     0.764600000000    -1.45071    
C2       C      0.307500000000     0.883600000000     0.798166666667     1.18302    
C4       C      0.309000000000     0.845900000000     0.987233333333     1.06835    
C1       C      0.278550000000     0.833950000000     0.970633333333    -0.430146   
C5       C      0.250000000000     0.877700000000     0.801500000000     0.576212   
C7       C      0.250000000000     0.888550000000     0.887700000000    -0.577422   
H7       H      0.250000000000     0.889702500000     0.917265666667     0.225037   
C3       C      0.250000000000     0.845550000000     0.988633333333     0.267387   
C6       C      0.278150000000     0.882300000000     0.822000000000    -0.649485   
C8       C      0.277650000000     0.809900000000     0.942300000000     0.278431   
H8       H      0.300000000000     0.801500000000     0.931666666667    -0.0290234  
C9       C      0.277150000000     0.887650000000     0.865400000000     0.515378   
H9       H      0.296405000000     0.890767000000     0.879766333333    -0.137471   
C13      C      0.250000000000     0.798950000000     0.928833333333    -0.322948   
H13      H      0.250000000000     0.782000000000     0.907000000000     0.117132   
H5       H      0.250000000000     0.874000000000     0.773000000000    -0.146487   
Al01     Al     0.127040000000     0.593130000000     0.806600000000     5.95284    
O002     O      0.125350000000     0.620295000000     0.762100000000    -2.15158    
O003     O      0.083250000000     0.584400000000     0.801933333333    -1.42378    
O006     O      0.170850000000     0.598150000000     0.814466666667    -1.44499    
O1       O      0.135850000000     0.559300000000     0.766966666667    -1.37514    
O2       O      0.130300000000     0.560800000000     0.847933333333    -1.45254    
C2       C      0.116400000000     0.557500000000     0.881500000000     1.18848    
C4       C      0.154100000000     0.559000000000     0.737233333333     1.09103    
C1       C      0.166050000000     0.528550000000     0.720633333333    -0.438932   
C5       C      0.122300000000     0.500000000000     0.884833333333     0.590631   
C7       C      0.111450000000     0.500000000000     0.971033333333    -0.625443   
H7       H      0.110297500000     0.500000000000     0.667265666667     0.22632    
C3       C      0.154450000000     0.500000000000     0.738633333333     0.27944    
C6       C      0.117700000000     0.528150000000     0.905333333333    -0.665592   
C8       C      0.190100000000     0.527650000000     0.692300000000     0.286039   
H8       H      0.198500000000     0.550000000000     0.681666666667    -0.0302947  
C9       C      0.112350000000     0.527150000000     0.948733333333     0.542625   
H9       H      0.109233000000     0.546405000000     0.963099666667    -0.149447   
C13      C      0.201050000000     0.500000000000     0.678833333333    -0.328922   
H13      H      0.218000000000     0.500000000000     0.990333333333     0.101117   
H5       H      0.126000000000     0.500000000000     0.856333333333    -0.151506   
Al01     Al     0.093130000000     0.877040000000     0.889933333333     5.95177    
O002     O      0.120295000000     0.875350000000     0.845433333333    -2.15164    
O003     O      0.084400000000     0.833250000000     0.885266666667    -1.42239    
O006     O      0.098150000000     0.920850000000     0.897800000000    -1.44675    
O1       O      0.059300000000     0.885850000000     0.850300000000    -1.37495    
O2       O      0.060800000000     0.880300000000     0.931266666667    -1.45322    
C2       C      0.057500000000     0.866400000000     0.964833333333     1.19106    
C4       C      0.059000000000     0.904100000000     0.820566666667     1.09094    
C1       C      0.028550000000     0.916050000000     0.803966666667    -0.43899    
C6       C      0.028150000000     0.867700000000     0.988666666667    -0.684367   
C8       C      0.027650000000     0.940100000000     0.775633333333     0.286674   
H8       H      0.050000000000     0.948500000000     0.765000000000    -0.0303535  
C9       C      0.027150000000     0.862350000000     0.698733333333     0.516265   
H9       H      0.046405000000     0.859233000000     0.713099666667    -0.137269   
Al01     Al     0.122960000000     0.843130000000     0.973266666667     5.89815    
O002     O      0.124650000000     0.870295000000     0.928766666667    -2.14387    
O003     O      0.166750000000     0.834400000000     0.968600000000    -1.4133     
O006     O      0.079150000000     0.848150000000     0.981133333333    -1.44356    
O1       O      0.114150000000     0.809300000000     0.933633333333    -1.36868    
O2       O      0.119700000000     0.810800000000     0.681266666667    -1.45074    
C2       C      0.133600000000     0.807500000000     0.714833333333     1.18299    
C4       C      0.095900000000     0.809000000000     0.903900000000     1.08755    
C1       C      0.083950000000     0.778550000000     0.887300000000    -0.437542   
C6       C      0.132300000000     0.778150000000     0.738666666667    -0.649477   
C8       C      0.059900000000     0.777650000000     0.858966666667     0.284597   
H8       H      0.051500000000     0.800000000000     0.848333333333    -0.0301189  
C9       C      0.137650000000     0.777150000000     0.782066666667     0.515541   
H9       H      0.140767000000     0.796405000000     0.796433000000    -0.136961   
Al01     Al     0.156870000000     0.872960000000     0.723266666667     5.95255    
O002     O      0.129705000000     0.874650000000     0.678766666667    -2.15152    
O003     O      0.165600000000     0.916750000000     0.718600000000    -1.42372    
O006     O      0.151850000000     0.829150000000     0.731133333333    -1.4448     
O1       O      0.190700000000     0.864150000000     0.683633333333    -1.37517    
O2       O      0.189200000000     0.869700000000     0.764600000000    -1.45071    
C2       C      0.192500000000     0.883600000000     0.798166666667     1.18302    
C4       C      0.191000000000     0.845900000000     0.987233333333     1.06837    
C1       C      0.221450000000     0.833950000000     0.970633333333    -0.430148   
C6       C      0.221850000000     0.882300000000     0.822000000000    -0.649484   
C8       C      0.222350000000     0.809900000000     0.942300000000     0.278433   
H8       H      0.200000000000     0.801500000000     0.931666666667    -0.0290208  
C9       C      0.222850000000     0.887650000000     0.865400000000     0.515379   
H9       H      0.203595000000     0.890767000000     0.879766333333    -0.137468   
Al01     Al     0.127040000000     0.906870000000     0.806600000000     5.9528     
O002     O      0.125350000000     0.879705000000     0.762100000000    -2.15158    
O003     O      0.083250000000     0.915600000000     0.801933333333    -1.42371    
O006     O      0.170850000000     0.901850000000     0.814466666667    -1.44493    
O1       O      0.135850000000     0.940700000000     0.766966666667    -1.37488    
O2       O      0.130300000000     0.939200000000     0.847933333333    -1.45228    
C2       C      0.116400000000     0.942500000000     0.881500000000     1.18834    
C4       C      0.154100000000     0.941000000000     0.737233333333     1.09095    
C1       C      0.166050000000     0.971450000000     0.720633333333    -0.438234   
C6       C      0.117700000000     0.971850000000     0.905333333333    -0.66478    
C8       C      0.190100000000     0.972350000000     0.692300000000     0.287595   
H8       H      0.198500000000     0.950000000000     0.681666666667    -0.0305405  
C9       C      0.112350000000     0.972850000000     0.948733333333     0.544268   
H9       H      0.109233000000     0.953595000000     0.963099666667    -0.149827   
Al01     Al     0.156870000000     0.627040000000     0.723266666667     5.9525     
O002     O      0.129705000000     0.625350000000     0.678766666667    -2.15154    
O003     O      0.165600000000     0.583250000000     0.718600000000    -1.42377    
O006     O      0.151850000000     0.670850000000     0.731133333333    -1.44479    
O1       O      0.190700000000     0.635850000000     0.683633333333    -1.37518    
O2       O      0.189200000000     0.630300000000     0.764600000000    -1.45071    
C2       C      0.192500000000     0.616400000000     0.798166666667     1.18301    
C4       C      0.191000000000     0.654100000000     0.987233333333     1.06833    
C1       C      0.221450000000     0.666050000000     0.970633333333    -0.430134   
C5       C      0.250000000000     0.622300000000     0.801500000000     0.576212   
C7       C      0.250000000000     0.611450000000     0.887700000000    -0.577476   
H7       H      0.250000000000     0.610297500000     0.917265666667     0.224994   
C3       C      0.250000000000     0.654450000000     0.988633333333     0.267341   
C6       C      0.221850000000     0.617700000000     0.822000000000    -0.649529   
C8       C      0.222350000000     0.690100000000     0.942300000000     0.278422   
H8       H      0.200000000000     0.698500000000     0.931666666667    -0.0290176  
C9       C      0.222850000000     0.612350000000     0.865400000000     0.515362   
H9       H      0.203595000000     0.609233000000     0.879766333333    -0.137508   
C13      C      0.250000000000     0.701050000000     0.928833333333    -0.322936   
H13      H      0.250000000000     0.718000000000     0.907000000000     0.117129   
H5       H      0.250000000000     0.626000000000     0.773000000000    -0.14651    
Al01     Al     0.372960000000     0.906870000000     0.806600000000     5.9528     
O002     O      0.374650000000     0.879705000000     0.762100000000    -2.15157    
O003     O      0.416750000000     0.915600000000     0.801933333333    -1.42369    
O006     O      0.329150000000     0.901850000000     0.814466666667    -1.44494    
O1       O      0.364150000000     0.940700000000     0.766966666667    -1.37487    
O2       O      0.369700000000     0.939200000000     0.847933333333    -1.45229    
C2       C      0.383600000000     0.942500000000     0.881500000000     1.18836    
C4       C      0.345900000000     0.941000000000     0.737233333333     1.09095    
C1       C      0.333950000000     0.971450000000     0.720633333333    -0.438234   
C5       C      0.377700000000     0.500000000000     0.884833333333     0.590658   
C7       C      0.388550000000     0.500000000000     0.971033333333    -0.625485   
H7       H      0.389702500000     0.500000000000     0.667265666667     0.226335   
C3       C      0.345550000000     0.500000000000     0.738633333333     0.279446   
C6       C      0.382300000000     0.971850000000     0.905333333333    -0.664778   
C8       C      0.309900000000     0.972350000000     0.692300000000     0.287594   
H8       H      0.301500000000     0.950000000000     0.681666666667    -0.030542   
C9       C      0.387650000000     0.972850000000     0.948733333333     0.544328   
H9       H      0.390767000000     0.953595000000     0.963099666667    -0.149828   
C13      C      0.298950000000     0.500000000000     0.678833333333    -0.328924   
H13      H      0.282000000000     0.500000000000     0.990333333333     0.101109   
H5       H      0.374000000000     0.500000000000     0.856333333333    -0.151505   
Al01     Al     0.093130000000     0.622960000000     0.889933333333     5.95174    
O002     O      0.120295000000     0.624650000000     0.845433333333    -2.15164    
O003     O      0.084400000000     0.666750000000     0.885266666667    -1.42238    
O006     O      0.098150000000     0.579150000000     0.897800000000    -1.44682    
O1       O      0.059300000000     0.614150000000     0.850300000000    -1.37496    
O2       O      0.060800000000     0.619700000000     0.931266666667    -1.45325    
C2       C      0.057500000000     0.633600000000     0.964833333333     1.19106    
C4       C      0.059000000000     0.595900000000     0.820566666667     1.09092    
C1       C      0.028550000000     0.583950000000     0.803966666667    -0.439016   
C5       C      0.000000000000     0.627700000000     0.968166666667     0.602345   
C7       C      0.000000000000     0.638550000000     0.721033333333    -0.57968    
H7       H      0.000000000000     0.639702500000     0.750599000000     0.226721   
C3       C      0.000000000000     0.595550000000     0.821966666667     0.278186   
C6       C      0.028150000000     0.632300000000     0.988666666667    -0.68444    
C8       C      0.027650000000     0.559900000000     0.775633333333     0.286591   
H8       H      0.050000000000     0.551500000000     0.765000000000    -0.0304868  
C9       C      0.027150000000     0.637650000000     0.698733333333     0.516264   
H9       H      0.046405000000     0.640767000000     0.713099666667    -0.137277   
C13      C      0.000000000000     0.548950000000     0.762166666667    -0.330907   
H13      H      0.000000000000     0.532000000000     0.740333333333     0.11937    
H5       H      0.000000000000     0.624000000000     0.939666666667    -0.15607    
Al01     Al     0.377040000000     0.843130000000     0.973266666667     5.89808    
O002     O      0.375350000000     0.870295000000     0.928766666667    -2.14388    
O003     O      0.333250000000     0.834400000000     0.968600000000    -1.4133     
O006     O      0.420850000000     0.848150000000     0.981133333333    -1.44353    
O1       O      0.385850000000     0.809300000000     0.933633333333    -1.36866    
O2       O      0.380300000000     0.810800000000     0.681266666667    -1.45071    
C2       C      0.366400000000     0.807500000000     0.714833333333     1.18299    
C4       C      0.404100000000     0.809000000000     0.903900000000     1.08758    
C1       C      0.416050000000     0.778550000000     0.887300000000    -0.437537   
C5       C      0.372300000000     0.750000000000     0.718166666667     0.57621    
C7       C      0.361450000000     0.750000000000     0.804366666667    -0.577334   
H7       H      0.360297500000     0.750000000000     0.833932333333     0.226217   
C3       C      0.404450000000     0.750000000000     0.905300000000     0.276061   
C6       C      0.367700000000     0.778150000000     0.738666666667    -0.649451   
C8       C      0.440100000000     0.777650000000     0.858966666667     0.284724   
H8       H      0.448500000000     0.800000000000     0.848333333333    -0.0300057  
C9       C      0.362350000000     0.777150000000     0.782066666667     0.515535   
H9       H      0.359233000000     0.796405000000     0.796433000000    -0.136958   
C13      C      0.451050000000     0.750000000000     0.845500000000    -0.328005   
H13      H      0.468000000000     0.750000000000     0.823666666667     0.118824   
H5       H      0.376000000000     0.750000000000     0.689666666667    -0.146505   
Al01     Al     0.343130000000     0.627040000000     0.723266666667     5.95249    
O002     O      0.370295000000     0.625350000000     0.678766666667    -2.15154    
O003     O      0.334400000000     0.583250000000     0.718600000000    -1.42377    
O006     O      0.348150000000     0.670850000000     0.731133333333    -1.44479    
O1       O      0.309300000000     0.635850000000     0.683633333333    -1.37518    
O2       O      0.310800000000     0.630300000000     0.764600000000    -1.45071    
C2       C      0.307500000000     0.616400000000     0.798166666667     1.18301    
C4       C      0.309000000000     0.654100000000     0.987233333333     1.06831    
C1       C      0.278550000000     0.666050000000     0.970633333333    -0.430132   
C6       C      0.278150000000     0.617700000000     0.822000000000    -0.64953    
C8       C      0.277650000000     0.690100000000     0.942300000000     0.278419   
H8       H      0.300000000000     0.698500000000     0.931666666667    -0.0290202  
C9       C      0.277150000000     0.612350000000     0.865400000000     0.515362   
H9       H      0.296405000000     0.609233000000     0.879766333333    -0.137511   
Al01     Al     0.372960000000     0.593130000000     0.806600000000     5.95284    
O002     O      0.374650000000     0.620295000000     0.762100000000    -2.15157    
O003     O      0.416750000000     0.584400000000     0.801933333333    -1.42376    
O006     O      0.329150000000     0.598150000000     0.814466666667    -1.445      
O1       O      0.364150000000     0.559300000000     0.766966666667    -1.37514    
O2       O      0.369700000000     0.560800000000     0.847933333333    -1.45254    
C2       C      0.383600000000     0.557500000000     0.881500000000     1.18849    
C4       C      0.345900000000     0.559000000000     0.737233333333     1.09103    
C1       C      0.333950000000     0.528550000000     0.720633333333    -0.438934   
C6       C      0.382300000000     0.528150000000     0.905333333333    -0.665591   
C8       C      0.309900000000     0.527650000000     0.692300000000     0.286037   
H8       H      0.301500000000     0.550000000000     0.681666666667    -0.0302961  
C9       C      0.387650000000     0.527150000000     0.948733333333     0.542682   
H9       H      0.390767000000     0.546405000000     0.963099666667    -0.149447   
Al01     Al     0.406870000000     0.622960000000     0.889933333333     5.9518     
O002     O      0.379705000000     0.624650000000     0.845433333333    -2.15166    
O003     O      0.415600000000     0.666750000000     0.885266666667    -1.42235    
O006     O      0.401850000000     0.579150000000     0.897800000000    -1.4468     
O1       O      0.440700000000     0.614150000000     0.850300000000    -1.3749     
O2       O      0.439200000000     0.619700000000     0.931266666667    -1.45321    
C2       C      0.442500000000     0.633600000000     0.964833333333     1.19114    
C4       C      0.441000000000     0.595900000000     0.820566666667     1.09093    
C1       C      0.471450000000     0.583950000000     0.803966666667    -0.438913   
C6       C      0.471850000000     0.632300000000     0.988666666667    -0.684491   
C8       C      0.472350000000     0.559900000000     0.775633333333     0.285984   
H8       H      0.450000000000     0.551500000000     0.765000000000    -0.0302709  
C9       C      0.472850000000     0.637650000000     0.698733333333     0.515601   
H9       H      0.453595000000     0.640767000000     0.713099666667    -0.136998   
Al01     Al     0.377040000000     0.656870000000     0.973266666667     5.898      
O002     O      0.375350000000     0.629705000000     0.928766666667    -2.14388    
O003     O      0.333250000000     0.665600000000     0.968600000000    -1.41328    
O006     O      0.420850000000     0.651850000000     0.981133333333    -1.44352    
O1       O      0.385850000000     0.690700000000     0.933633333333    -1.36865    
O2       O      0.380300000000     0.689200000000     0.681266666667    -1.45071    
C2       C      0.366400000000     0.692500000000     0.714833333333     1.18299    
C4       C      0.404100000000     0.691000000000     0.903900000000     1.08757    
C1       C      0.416050000000     0.721450000000     0.887300000000    -0.437535   
C6       C      0.367700000000     0.721850000000     0.738666666667    -0.649449   
C8       C      0.440100000000     0.722350000000     0.858966666667     0.284723   
H8       H      0.448500000000     0.700000000000     0.848333333333    -0.0300048  
C9       C      0.362350000000     0.722850000000     0.782066666667     0.515534   
H9       H      0.359233000000     0.703595000000     0.796433000000    -0.136956   
Al01     Al     0.906870000000     0.377040000000     0.223266666667     5.95198    
O002     O      0.879705000000     0.375350000000     0.178766666667    -2.1512     
O003     O      0.915600000000     0.333250000000     0.218600000000    -1.4236     
O006     O      0.901850000000     0.420850000000     0.231133333333    -1.4447     
O1       O      0.940700000000     0.385850000000     0.183633333333    -1.37482    
O2       O      0.939200000000     0.380300000000     0.264600000000    -1.45045    
C2       C      0.942500000000     0.366400000000     0.298166666667     1.1828     
C4       C      0.941000000000     0.404100000000     0.153900000000     1.09089    
C1       C      0.971450000000     0.416050000000     0.137300000000    -0.438128   
C5       C      0.500000000000     0.372300000000     0.301500000000     0.576198   
C7       C      0.500000000000     0.361450000000     0.054366666667    -0.615178   
H7       H      0.500000000000     0.360297500000     0.083932333333     0.239785   
C3       C      0.500000000000     0.404450000000     0.155300000000     0.279112   
C6       C      0.971850000000     0.367700000000     0.322000000000    -0.648802   
C8       C      0.972350000000     0.440100000000     0.108966666667     0.288146   
H8       H      0.950000000000     0.448500000000     0.098333333333    -0.029709   
C9       C      0.972850000000     0.362350000000     0.032066666667     0.560831   
H9       H      0.953595000000     0.359233000000     0.046433000000    -0.14897    
C13      C      0.500000000000     0.451050000000     0.095500000000    -0.328677   
H13      H      0.500000000000     0.468000000000     0.073666666667     0.12086    
H5       H      0.500000000000     0.376000000000     0.273000000000    -0.146564   
Al01     Al     0.622960000000     0.156870000000     0.306600000000     5.95217    
O002     O      0.624650000000     0.129705000000     0.262100000000    -2.15148    
O003     O      0.666750000000     0.165600000000     0.301933333333    -1.42374    
O006     O      0.579150000000     0.151850000000     0.314466666667    -1.4448     
O1       O      0.614150000000     0.190700000000     0.266966666667    -1.37516    
O2       O      0.619700000000     0.189200000000     0.014600000000    -1.43334    
C2       C      0.633600000000     0.192500000000     0.048166666667     1.17693    
C4       C      0.595900000000     0.191000000000     0.237233333333     1.09098    
C1       C      0.583950000000     0.221450000000     0.220633333333    -0.438942   
C5       C      0.627700000000     0.250000000000     0.051500000000     0.570829   
C7       C      0.638550000000     0.250000000000     0.137700000000    -0.572573   
H7       H      0.639702500000     0.250000000000     0.167265666667     0.224763   
C3       C      0.595550000000     0.250000000000     0.238633333333     0.27939    
C6       C      0.632300000000     0.221850000000     0.072000000000    -0.642882   
C8       C      0.559900000000     0.222350000000     0.192300000000     0.286177   
H8       H      0.551500000000     0.200000000000     0.181666666667    -0.0301634  
C9       C      0.637650000000     0.222850000000     0.115400000000     0.511181   
H9       H      0.640767000000     0.203595000000     0.129766333333    -0.135283   
C13      C      0.548950000000     0.250000000000     0.178833333333    -0.32897    
H13      H      0.532000000000     0.250000000000     0.157000000000     0.119643   
H5       H      0.624000000000     0.250000000000     0.023000000000    -0.141469   
Al01     Al     0.843130000000     0.372960000000     0.056600000000     5.94312    
O002     O      0.870295000000     0.374650000000     0.012100000000    -2.13366    
O003     O      0.834400000000     0.416750000000     0.051933333333    -1.4204     
O006     O      0.848150000000     0.329150000000     0.064466666667    -1.43945    
O1       O      0.809300000000     0.364150000000     0.016966666667    -1.35828    
O2       O      0.810800000000     0.369700000000     0.097933333333    -1.44852    
C2       C      0.807500000000     0.383600000000     0.131500000000     1.18195    
C4       C      0.809000000000     0.345900000000     0.320566666667     1.09098    
C1       C      0.778550000000     0.333950000000     0.303966666667    -0.438944   
C5       C      0.750000000000     0.377700000000     0.134833333333     0.575078   
C7       C      0.750000000000     0.388550000000     0.221033333333    -0.57661    
H7       H      0.750000000000     0.389702500000     0.250599000000     0.225978   
C3       C      0.750000000000     0.345550000000     0.321966666667     0.279335   
C6       C      0.778150000000     0.382300000000     0.155333333333    -0.648336   
C8       C      0.777650000000     0.309900000000     0.275633333333     0.286066   
H8       H      0.800000000000     0.301500000000     0.265000000000    -0.030273   
C9       C      0.777150000000     0.387650000000     0.198733333333     0.514697   
H9       H      0.796405000000     0.390767000000     0.213099666667    -0.136747   
C13      C      0.750000000000     0.298950000000     0.262166666667    -0.328952   
H13      H      0.750000000000     0.282000000000     0.240333333333     0.11931    
H5       H      0.750000000000     0.374000000000     0.106333333333    -0.145155   
Al01     Al     0.627040000000     0.093130000000     0.139933333333     5.95087    
O002     O      0.625350000000     0.120295000000     0.095433333333    -2.14909    
O003     O      0.583250000000     0.084400000000     0.135266666667    -1.42313    
O006     O      0.670850000000     0.098150000000     0.147800000000    -1.44431    
O1       O      0.635850000000     0.059300000000     0.100300000000    -1.37371    
O2       O      0.630300000000     0.060800000000     0.181266666667    -1.45056    
C2       C      0.616400000000     0.057500000000     0.214833333333     1.18276    
C4       C      0.654100000000     0.059000000000     0.070566666667     1.08837    
C1       C      0.666050000000     0.028550000000     0.053966666667    -0.431048   
C5       C      0.622300000000     0.000000000000     0.218166666667     0.574659   
C7       C      0.611450000000     0.000000000000     0.304366666667    -0.579672   
H7       H      0.610297500000     0.000000000000     0.000599000000     0.251059   
C3       C      0.654450000000     0.000000000000     0.071966666667     0.273885   
C6       C      0.617700000000     0.028150000000     0.238666666667    -0.649528   
C8       C      0.690100000000     0.027650000000     0.025633333333     0.272468   
H8       H      0.698500000000     0.050000000000     0.015000000000    -0.0234955  
C9       C      0.612350000000     0.027150000000     0.282066666667     0.516137   
H9       H      0.609233000000     0.046405000000     0.296433000000    -0.137305   
C13      C      0.701050000000     0.000000000000     0.012166666667    -0.299346   
H13      H      0.718000000000     0.000000000000     0.323666666667     0.119316   
H5       H      0.626000000000     0.000000000000     0.189666666667    -0.146368   
Al01     Al     0.593130000000     0.377040000000     0.223266666667     5.95202    
O002     O      0.620295000000     0.375350000000     0.178766666667    -2.1512     
O003     O      0.584400000000     0.333250000000     0.218600000000    -1.42367    
O006     O      0.598150000000     0.420850000000     0.231133333333    -1.44476    
O1       O      0.559300000000     0.385850000000     0.183633333333    -1.37508    
O2       O      0.560800000000     0.380300000000     0.264600000000    -1.4507     
C2       C      0.557500000000     0.366400000000     0.298166666667     1.18292    
C4       C      0.559000000000     0.404100000000     0.153900000000     1.09097    
C1       C      0.528550000000     0.416050000000     0.137300000000    -0.438827   
C6       C      0.528150000000     0.367700000000     0.322000000000    -0.64956    
C8       C      0.527650000000     0.440100000000     0.108966666667     0.286594   
H8       H      0.550000000000     0.448500000000     0.098333333333    -0.0294611  
C9       C      0.527150000000     0.362350000000     0.032066666667     0.559228   
H9       H      0.546405000000     0.359233000000     0.046433000000    -0.148586   
Al01     Al     0.622960000000     0.343130000000     0.306600000000     5.95216    
O002     O      0.624650000000     0.370295000000     0.262100000000    -2.15148    
O003     O      0.666750000000     0.334400000000     0.301933333333    -1.42374    
O006     O      0.579150000000     0.348150000000     0.314466666667    -1.4448     
O1       O      0.614150000000     0.309300000000     0.266966666667    -1.37516    
O2       O      0.619700000000     0.310800000000     0.014600000000    -1.43332    
C2       C      0.633600000000     0.307500000000     0.048166666667     1.17692    
C4       C      0.595900000000     0.309000000000     0.237233333333     1.09098    
C1       C      0.583950000000     0.278550000000     0.220633333333    -0.438943   
C6       C      0.632300000000     0.278150000000     0.072000000000    -0.642881   
C8       C      0.559900000000     0.277650000000     0.192300000000     0.286176   
H8       H      0.551500000000     0.300000000000     0.181666666667    -0.0301658  
C9       C      0.637650000000     0.277150000000     0.115400000000     0.511179   
H9       H      0.640767000000     0.296405000000     0.129766333333    -0.135285   
Al01     Al     0.656870000000     0.372960000000     0.056600000000     5.94309    
O002     O      0.629705000000     0.374650000000     0.012100000000    -2.13364    
O003     O      0.665600000000     0.416750000000     0.051933333333    -1.42039    
O006     O      0.651850000000     0.329150000000     0.064466666667    -1.43945    
O1       O      0.690700000000     0.364150000000     0.016966666667    -1.35826    
O2       O      0.689200000000     0.369700000000     0.097933333333    -1.44852    
C2       C      0.692500000000     0.383600000000     0.131500000000     1.18195    
C4       C      0.691000000000     0.345900000000     0.320566666667     1.09097    
C1       C      0.721450000000     0.333950000000     0.303966666667    -0.438942   
C6       C      0.721850000000     0.382300000000     0.155333333333    -0.648334   
C8       C      0.722350000000     0.309900000000     0.275633333333     0.286066   
H8       H      0.700000000000     0.301500000000     0.265000000000    -0.0302723  
C9       C      0.722850000000     0.387650000000     0.198733333333     0.514696   
H9       H      0.703595000000     0.390767000000     0.213099666667    -0.136746   
Al01     Al     0.627040000000     0.406870000000     0.139933333333     5.95092    
O002     O      0.625350000000     0.379705000000     0.095433333333    -2.1491     
O003     O      0.583250000000     0.415600000000     0.135266666667    -1.4231     
O006     O      0.670850000000     0.401850000000     0.147800000000    -1.44429    
O1       O      0.635850000000     0.440700000000     0.100300000000    -1.37364    
O2       O      0.630300000000     0.439200000000     0.181266666667    -1.4505     
C2       C      0.616400000000     0.442500000000     0.214833333333     1.18281    
C4       C      0.654100000000     0.441000000000     0.070566666667     1.08837    
C1       C      0.666050000000     0.471450000000     0.053966666667    -0.43092    
C6       C      0.617700000000     0.471850000000     0.238666666667    -0.649476   
C8       C      0.690100000000     0.472350000000     0.025633333333     0.271811   
H8       H      0.698500000000     0.450000000000     0.015000000000    -0.0232575  
C9       C      0.612350000000     0.472850000000     0.282066666667     0.515474   
H9       H      0.609233000000     0.453595000000     0.296433000000    -0.137026   
Al01     Al     0.656870000000     0.127040000000     0.056600000000     5.94311    
O002     O      0.629705000000     0.125350000000     0.012100000000    -2.13367    
O003     O      0.665600000000     0.083250000000     0.051933333333    -1.42042    
O006     O      0.651850000000     0.170850000000     0.064466666667    -1.43945    
O1       O      0.690700000000     0.135850000000     0.016966666667    -1.35829    
O2       O      0.689200000000     0.130300000000     0.097933333333    -1.44852    
C2       C      0.692500000000     0.116400000000     0.131500000000     1.18194    
C4       C      0.691000000000     0.154100000000     0.320566666667     1.09098    
C1       C      0.721450000000     0.166050000000     0.303966666667    -0.438941   
C5       C      0.750000000000     0.122300000000     0.134833333333     0.575075   
C7       C      0.750000000000     0.111450000000     0.221033333333    -0.576643   
H7       H      0.750000000000     0.110297500000     0.250599000000     0.225964   
C3       C      0.750000000000     0.154450000000     0.321966666667     0.27933    
C6       C      0.721850000000     0.117700000000     0.155333333333    -0.64836    
C8       C      0.722350000000     0.190100000000     0.275633333333     0.286068   
H8       H      0.700000000000     0.198500000000     0.265000000000    -0.0302709  
C9       C      0.722850000000     0.112350000000     0.198733333333     0.514682   
H9       H      0.703595000000     0.109233000000     0.213099666667    -0.136765   
C13      C      0.750000000000     0.201050000000     0.262166666667    -0.32895    
H13      H      0.750000000000     0.218000000000     0.240333333333     0.119311   
H5       H      0.750000000000     0.126000000000     0.106333333333    -0.145166   
Al01     Al     0.872960000000     0.406870000000     0.139933333333     5.95097    
O002     O      0.874650000000     0.379705000000     0.095433333333    -2.14908    
O003     O      0.916750000000     0.415600000000     0.135266666667    -1.42305    
O006     O      0.829150000000     0.401850000000     0.147800000000    -1.4443     
O1       O      0.864150000000     0.440700000000     0.100300000000    -1.37363    
O2       O      0.869700000000     0.439200000000     0.181266666667    -1.4505     
C2       C      0.883600000000     0.442500000000     0.214833333333     1.18282    
C4       C      0.845900000000     0.441000000000     0.070566666667     1.08839    
C1       C      0.833950000000     0.471450000000     0.053966666667    -0.430927   
C5       C      0.877700000000     0.000000000000     0.218166666667     0.574661   
C7       C      0.888550000000     0.000000000000     0.304366666667    -0.579615   
H7       H      0.889702500000     0.000000000000     0.000599000000     0.251051   
C3       C      0.845550000000     0.000000000000     0.071966666667     0.273918   
C6       C      0.882300000000     0.471850000000     0.238666666667    -0.649431   
C8       C      0.809900000000     0.472350000000     0.025633333333     0.271819   
H8       H      0.801500000000     0.450000000000     0.015000000000    -0.0232619  
C9       C      0.887650000000     0.472850000000     0.282066666667     0.51549    
H9       H      0.890767000000     0.453595000000     0.296433000000    -0.136988   
C13      C      0.798950000000     0.000000000000     0.012166666667    -0.299364   
H13      H      0.782000000000     0.000000000000     0.323666666667     0.119316   
H5       H      0.874000000000     0.000000000000     0.189666666667    -0.146346   
Al01     Al     0.593130000000     0.122960000000     0.223266666667     5.95201    
O002     O      0.620295000000     0.124650000000     0.178766666667    -2.15119    
O003     O      0.584400000000     0.166750000000     0.218600000000    -1.42366    
O006     O      0.598150000000     0.079150000000     0.231133333333    -1.4448     
O1       O      0.559300000000     0.114150000000     0.183633333333    -1.37509    
O2       O      0.560800000000     0.119700000000     0.264600000000    -1.45073    
C2       C      0.557500000000     0.133600000000     0.298166666667     1.18292    
C4       C      0.559000000000     0.095900000000     0.153900000000     1.09094    
C1       C      0.528550000000     0.083950000000     0.137300000000    -0.43883    
C5       C      0.500000000000     0.127700000000     0.301500000000     0.576193   
C7       C      0.500000000000     0.138550000000     0.054366666667    -0.615136   
H7       H      0.500000000000     0.139702500000     0.083932333333     0.239775   
C3       C      0.500000000000     0.095550000000     0.155300000000     0.27905    
C6       C      0.528150000000     0.132300000000     0.322000000000    -0.649586   
C8       C      0.527650000000     0.059900000000     0.108966666667     0.286463   
H8       H      0.550000000000     0.051500000000     0.098333333333    -0.0295769  
C9       C      0.527150000000     0.137650000000     0.032066666667     0.55917    
H9       H      0.546405000000     0.140767000000     0.046433000000    -0.148572   
C13      C      0.500000000000     0.048950000000     0.095500000000    -0.3287     
H13      H      0.500000000000     0.032000000000     0.073666666667     0.120568   
H5       H      0.500000000000     0.124000000000     0.273000000000    -0.146588   
Al01     Al     0.877040000000     0.343130000000     0.306600000000     5.9522     
O002     O      0.875350000000     0.370295000000     0.262100000000    -2.15148    
O003     O      0.833250000000     0.334400000000     0.301933333333    -1.42375    
O006     O      0.920850000000     0.348150000000     0.314466666667    -1.44473    
O1       O      0.885850000000     0.309300000000     0.266966666667    -1.37515    
O2       O      0.880300000000     0.310800000000     0.014600000000    -1.43332    
C2       C      0.866400000000     0.307500000000     0.048166666667     1.17694    
C4       C      0.904100000000     0.309000000000     0.237233333333     1.09099    
C1       C      0.916050000000     0.278550000000     0.220633333333    -0.438918   
C5       C      0.872300000000     0.250000000000     0.051500000000     0.570847   
C7       C      0.861450000000     0.250000000000     0.137700000000    -0.572567   
H7       H      0.860297500000     0.250000000000     0.167265666667     0.22476    
C3       C      0.904450000000     0.250000000000     0.238633333333     0.279435   
C6       C      0.867700000000     0.278150000000     0.072000000000    -0.642865   
C8       C      0.940100000000     0.277650000000     0.192300000000     0.28626    
H8       H      0.948500000000     0.300000000000     0.181666666667    -0.0300343  
C9       C      0.862350000000     0.277150000000     0.115400000000     0.511188   
H9       H      0.859233000000     0.296405000000     0.129766333333    -0.13528    
C13      C      0.951050000000     0.250000000000     0.178833333333    -0.328926   
H13      H      0.968000000000     0.250000000000     0.157000000000     0.119866   
H5       H      0.876000000000     0.250000000000     0.023000000000    -0.141455   
Al01     Al     0.843130000000     0.127040000000     0.056600000000     5.94314    
O002     O      0.870295000000     0.125350000000     0.012100000000    -2.13369    
O003     O      0.834400000000     0.083250000000     0.051933333333    -1.42042    
O006     O      0.848150000000     0.170850000000     0.064466666667    -1.43946    
O1       O      0.809300000000     0.135850000000     0.016966666667    -1.35831    
O2       O      0.810800000000     0.130300000000     0.097933333333    -1.44853    
C2       C      0.807500000000     0.116400000000     0.131500000000     1.18195    
C4       C      0.809000000000     0.154100000000     0.320566666667     1.09098    
C1       C      0.778550000000     0.166050000000     0.303966666667    -0.438942   
C6       C      0.778150000000     0.117700000000     0.155333333333    -0.648363   
C8       C      0.777650000000     0.190100000000     0.275633333333     0.286068   
H8       H      0.800000000000     0.198500000000     0.265000000000    -0.0302717  
C9       C      0.777150000000     0.112350000000     0.198733333333     0.514683   
H9       H      0.796405000000     0.109233000000     0.213099666667    -0.136767   
Al01     Al     0.872960000000     0.093130000000     0.139933333333     5.95092    
O002     O      0.874650000000     0.120295000000     0.095433333333    -2.14908    
O003     O      0.916750000000     0.084400000000     0.135266666667    -1.42308    
O006     O      0.829150000000     0.098150000000     0.147800000000    -1.44432    
O1       O      0.864150000000     0.059300000000     0.100300000000    -1.37369    
O2       O      0.869700000000     0.060800000000     0.181266666667    -1.45056    
C2       C      0.883600000000     0.057500000000     0.214833333333     1.18276    
C4       C      0.845900000000     0.059000000000     0.070566666667     1.08839    
C1       C      0.833950000000     0.028550000000     0.053966666667    -0.431056   
C6       C      0.882300000000     0.028150000000     0.238666666667    -0.649483   
C8       C      0.809900000000     0.027650000000     0.025633333333     0.272476   
H8       H      0.801500000000     0.050000000000     0.015000000000    -0.0234998  
C9       C      0.887650000000     0.027150000000     0.282066666667     0.516152   
H9       H      0.890767000000     0.046405000000     0.296433000000    -0.137266   
Al01     Al     0.906870000000     0.122960000000     0.223266666667     5.95198    
O002     O      0.879705000000     0.124650000000     0.178766666667    -2.15119    
O003     O      0.915600000000     0.166750000000     0.218600000000    -1.4236     
O006     O      0.901850000000     0.079150000000     0.231133333333    -1.44474    
O1       O      0.940700000000     0.114150000000     0.183633333333    -1.37482    
O2       O      0.939200000000     0.119700000000     0.264600000000    -1.45048    
C2       C      0.942500000000     0.133600000000     0.298166666667     1.18281    
C4       C      0.941000000000     0.095900000000     0.153900000000     1.09086    
C1       C      0.971450000000     0.083950000000     0.137300000000    -0.438132   
C6       C      0.971850000000     0.132300000000     0.322000000000    -0.64883    
C8       C      0.972350000000     0.059900000000     0.108966666667     0.288011   
H8       H      0.950000000000     0.051500000000     0.098333333333    -0.0298239  
C9       C      0.972850000000     0.137650000000     0.032066666667     0.560771   
H9       H      0.953595000000     0.140767000000     0.046433000000    -0.148955   
Al01     Al     0.877040000000     0.156870000000     0.306600000000     5.95221    
O002     O      0.875350000000     0.129705000000     0.262100000000    -2.15148    
O003     O      0.833250000000     0.165600000000     0.301933333333    -1.42375    
O006     O      0.920850000000     0.151850000000     0.314466666667    -1.44473    
O1       O      0.885850000000     0.190700000000     0.266966666667    -1.37515    
O2       O      0.880300000000     0.189200000000     0.014600000000    -1.43334    
C2       C      0.866400000000     0.192500000000     0.048166666667     1.17695    
C4       C      0.904100000000     0.191000000000     0.237233333333     1.091      
C1       C      0.916050000000     0.221450000000     0.220633333333    -0.438917   
C6       C      0.867700000000     0.221850000000     0.072000000000    -0.642866   
C8       C      0.940100000000     0.222350000000     0.192300000000     0.286261   
H8       H      0.948500000000     0.200000000000     0.181666666667    -0.030032   
C9       C      0.862350000000     0.222850000000     0.115400000000     0.51119    
H9       H      0.859233000000     0.203595000000     0.129766333333    -0.135278   
Al01     Al     0.906870000000     0.377040000000     0.556600000000     5.95234    
O002     O      0.879705000000     0.375350000000     0.512100000000    -2.15152    
O003     O      0.915600000000     0.333250000000     0.551933333333    -1.42369    
O006     O      0.901850000000     0.420850000000     0.564466666667    -1.44474    
O1       O      0.940700000000     0.385850000000     0.516966666667    -1.37492    
O2       O      0.939200000000     0.380300000000     0.597933333333    -1.45046    
C2       C      0.942500000000     0.366400000000     0.631500000000     1.18287    
C4       C      0.941000000000     0.404100000000     0.487233333333     1.09092    
C1       C      0.971450000000     0.416050000000     0.470633333333    -0.438223   
C5       C      0.500000000000     0.372300000000     0.634833333333     0.576242   
C7       C      0.500000000000     0.361450000000     0.387700000000    -0.577511   
H7       H      0.500000000000     0.360297500000     0.417265666667     0.226297   
C3       C      0.500000000000     0.404450000000     0.488633333333     0.27936    
C6       C      0.971850000000     0.367700000000     0.655333333333    -0.648751   
C8       C      0.972350000000     0.440100000000     0.442300000000     0.287573   
H8       H      0.950000000000     0.448500000000     0.431666666667    -0.0305669  
C9       C      0.972850000000     0.362350000000     0.365400000000     0.517303   
H9       H      0.953595000000     0.359233000000     0.379766333333    -0.137463   
C13      C      0.500000000000     0.451050000000     0.428833333333    -0.328925   
H13      H      0.500000000000     0.468000000000     0.407000000000     0.119102   
H5       H      0.500000000000     0.376000000000     0.606333333333    -0.146529   
Al01     Al     0.622960000000     0.156870000000     0.639933333333     5.95246    
O002     O      0.624650000000     0.129705000000     0.595433333333    -2.15154    
O003     O      0.666750000000     0.165600000000     0.635266666667    -1.42376    
O006     O      0.579150000000     0.151850000000     0.647800000000    -1.4448     
O1       O      0.614150000000     0.190700000000     0.600300000000    -1.37518    
O2       O      0.619700000000     0.189200000000     0.347933333333    -1.45071    
C2       C      0.633600000000     0.192500000000     0.381500000000     1.18294    
C4       C      0.595900000000     0.191000000000     0.570566666667     1.09103    
C1       C      0.583950000000     0.221450000000     0.553966666667    -0.438917   
C5       C      0.627700000000     0.250000000000     0.384833333333     0.57621    
C7       C      0.638550000000     0.250000000000     0.471033333333    -0.577499   
H7       H      0.639702500000     0.250000000000     0.500599000000     0.226308   
C3       C      0.595550000000     0.250000000000     0.571966666667     0.279387   
C6       C      0.632300000000     0.221850000000     0.405333333333    -0.649546   
C8       C      0.559900000000     0.222350000000     0.525633333333     0.286035   
H8       H      0.551500000000     0.200000000000     0.515000000000    -0.0303049  
C9       C      0.637650000000     0.222850000000     0.448733333333     0.515569   
H9       H      0.640767000000     0.203595000000     0.463099666667    -0.137028   
C13      C      0.548950000000     0.250000000000     0.512166666667    -0.328916   
H13      H      0.532000000000     0.250000000000     0.490333333333     0.119122   
H5       H      0.624000000000     0.250000000000     0.356333333333    -0.146553   
Al01     Al     0.843130000000     0.372960000000     0.389933333333     5.95225    
O002     O      0.870295000000     0.374650000000     0.345433333333    -2.1515     
O003     O      0.834400000000     0.416750000000     0.385266666667    -1.42376    
O006     O      0.848150000000     0.329150000000     0.397800000000    -1.4448     
O1       O      0.809300000000     0.364150000000     0.350300000000    -1.37519    
O2       O      0.810800000000     0.369700000000     0.431266666667    -1.45072    
C2       C      0.807500000000     0.383600000000     0.464833333333     1.18296    
C4       C      0.809000000000     0.345900000000     0.653900000000     1.09104    
C1       C      0.778550000000     0.333950000000     0.637300000000    -0.438915   
C5       C      0.750000000000     0.377700000000     0.468166666667     0.576223   
C7       C      0.750000000000     0.388550000000     0.554366666667    -0.577495   
H7       H      0.750000000000     0.389702500000     0.583932333333     0.226314   
C3       C      0.750000000000     0.345550000000     0.655300000000     0.2794     
C6       C      0.778150000000     0.382300000000     0.488666666667    -0.649544   
C8       C      0.777650000000     0.309900000000     0.608966666667     0.286048   
H8       H      0.800000000000     0.301500000000     0.598333333333    -0.0302976  
C9       C      0.777150000000     0.387650000000     0.532066666667     0.515582   
H9       H      0.796405000000     0.390767000000     0.546433000000    -0.137025   
C13      C      0.750000000000     0.298950000000     0.595500000000    -0.328912   
H13      H      0.750000000000     0.282000000000     0.573666666667     0.119136   
H5       H      0.750000000000     0.374000000000     0.439666666667    -0.146552   
Al01     Al     0.627040000000     0.093130000000     0.473266666667     5.95225    
O002     O      0.625350000000     0.120295000000     0.428766666667    -2.1515     
O003     O      0.583250000000     0.084400000000     0.468600000000    -1.42379    
O006     O      0.670850000000     0.098150000000     0.481133333333    -1.44482    
O1       O      0.635850000000     0.059300000000     0.433633333333    -1.37525    
O2       O      0.630300000000     0.060800000000     0.514600000000    -1.45077    
C2       C      0.616400000000     0.057500000000     0.548166666667     1.18292    
C4       C      0.654100000000     0.059000000000     0.403900000000     1.09098    
C1       C      0.666050000000     0.028550000000     0.387300000000    -0.439032   
C5       C      0.622300000000     0.000000000000     0.551500000000     0.574806   
C7       C      0.611450000000     0.000000000000     0.637700000000    -0.579697   
H7       H      0.610297500000     0.000000000000     0.333932333333     0.226641   
C3       C      0.654450000000     0.000000000000     0.405300000000     0.278129   
C6       C      0.617700000000     0.028150000000     0.572000000000    -0.649582   
C8       C      0.690100000000     0.027650000000     0.358966666667     0.286606   
H8       H      0.698500000000     0.050000000000     0.348333333333    -0.0305451  
C9       C      0.612350000000     0.027150000000     0.615400000000     0.516255   
H9       H      0.609233000000     0.046405000000     0.629766333333    -0.13729    
C13      C      0.701050000000     0.000000000000     0.345500000000    -0.330931   
H13      H      0.718000000000     0.000000000000     0.657000000000     0.119364   
H5       H      0.626000000000     0.000000000000     0.523000000000    -0.146444   
Al01     Al     0.593130000000     0.377040000000     0.556600000000     5.95237    
O002     O      0.620295000000     0.375350000000     0.512100000000    -2.15152    
O003     O      0.584400000000     0.333250000000     0.551933333333    -1.42376    
O006     O      0.598150000000     0.420850000000     0.564466666667    -1.4448     
O1       O      0.559300000000     0.385850000000     0.516966666667    -1.37518    
O2       O      0.560800000000     0.380300000000     0.597933333333    -1.45071    
C2       C      0.557500000000     0.366400000000     0.631500000000     1.18299    
C4       C      0.559000000000     0.404100000000     0.487233333333     1.091      
C1       C      0.528550000000     0.416050000000     0.470633333333    -0.438924   
C6       C      0.528150000000     0.367700000000     0.655333333333    -0.64951    
C8       C      0.527650000000     0.440100000000     0.442300000000     0.286015   
H8       H      0.550000000000     0.448500000000     0.431666666667    -0.0303206  
C9       C      0.527150000000     0.362350000000     0.365400000000     0.515557   
H9       H      0.546405000000     0.359233000000     0.379766333333    -0.13704    
Al01     Al     0.622960000000     0.343130000000     0.639933333333     5.95245    
O002     O      0.624650000000     0.370295000000     0.595433333333    -2.15154    
O003     O      0.666750000000     0.334400000000     0.635266666667    -1.42376    
O006     O      0.579150000000     0.348150000000     0.647800000000    -1.4448     
O1       O      0.614150000000     0.309300000000     0.600300000000    -1.37518    
O2       O      0.619700000000     0.310800000000     0.347933333333    -1.45071    
C2       C      0.633600000000     0.307500000000     0.381500000000     1.18294    
C4       C      0.595900000000     0.309000000000     0.570566666667     1.09102    
C1       C      0.583950000000     0.278550000000     0.553966666667    -0.438918   
C6       C      0.632300000000     0.278150000000     0.405333333333    -0.649548   
C8       C      0.559900000000     0.277650000000     0.525633333333     0.286034   
H8       H      0.551500000000     0.300000000000     0.515000000000    -0.0303074  
C9       C      0.637650000000     0.277150000000     0.448733333333     0.515569   
H9       H      0.640767000000     0.296405000000     0.463099666667    -0.137031   
Al01     Al     0.656870000000     0.372960000000     0.389933333333     5.95223    
O002     O      0.629705000000     0.374650000000     0.345433333333    -2.15151    
O003     O      0.665600000000     0.416750000000     0.385266666667    -1.42376    
O006     O      0.651850000000     0.329150000000     0.397800000000    -1.4448     
O1       O      0.690700000000     0.364150000000     0.350300000000    -1.37518    
O2       O      0.689200000000     0.369700000000     0.431266666667    -1.45071    
C2       C      0.692500000000     0.383600000000     0.464833333333     1.18295    
C4       C      0.691000000000     0.345900000000     0.653900000000     1.09104    
C1       C      0.721450000000     0.333950000000     0.637300000000    -0.438914   
C6       C      0.721850000000     0.382300000000     0.488666666667    -0.649542   
C8       C      0.722350000000     0.309900000000     0.608966666667     0.286047   
H8       H      0.700000000000     0.301500000000     0.598333333333    -0.0302969  
C9       C      0.722850000000     0.387650000000     0.532066666667     0.515581   
H9       H      0.703595000000     0.390767000000     0.546433000000    -0.137024   
Al01     Al     0.627040000000     0.406870000000     0.473266666667     5.9523     
O002     O      0.625350000000     0.379705000000     0.428766666667    -2.15151    
O003     O      0.583250000000     0.415600000000     0.468600000000    -1.42376    
O006     O      0.670850000000     0.401850000000     0.481133333333    -1.4448     
O1       O      0.635850000000     0.440700000000     0.433633333333    -1.37518    
O2       O      0.630300000000     0.439200000000     0.514600000000    -1.45071    
C2       C      0.616400000000     0.442500000000     0.548166666667     1.18297    
C4       C      0.654100000000     0.441000000000     0.403900000000     1.09098    
C1       C      0.666050000000     0.471450000000     0.387300000000    -0.438929   
C6       C      0.617700000000     0.471850000000     0.572000000000    -0.64953    
C8       C      0.690100000000     0.472350000000     0.358966666667     0.286      
H8       H      0.698500000000     0.450000000000     0.348333333333    -0.0303292  
C9       C      0.612350000000     0.472850000000     0.615400000000     0.515594   
H9       H      0.609233000000     0.453595000000     0.629766333333    -0.137012   
Al01     Al     0.656870000000     0.127040000000     0.389933333333     5.95224    
O002     O      0.629705000000     0.125350000000     0.345433333333    -2.15151    
O003     O      0.665600000000     0.083250000000     0.385266666667    -1.42378    
O006     O      0.651850000000     0.170850000000     0.397800000000    -1.44479    
O1       O      0.690700000000     0.135850000000     0.350300000000    -1.37519    
O2       O      0.689200000000     0.130300000000     0.431266666667    -1.45071    
C2       C      0.692500000000     0.116400000000     0.464833333333     1.18295    
C4       C      0.691000000000     0.154100000000     0.653900000000     1.09104    
C1       C      0.721450000000     0.166050000000     0.637300000000    -0.438912   
C5       C      0.750000000000     0.122300000000     0.468166666667     0.576219   
C7       C      0.750000000000     0.111450000000     0.554366666667    -0.577527   
H7       H      0.750000000000     0.110297500000     0.583932333333     0.226299   
C3       C      0.750000000000     0.154450000000     0.655300000000     0.279395   
C6       C      0.721850000000     0.117700000000     0.488666666667    -0.649567   
C8       C      0.722350000000     0.190100000000     0.608966666667     0.286049   
H8       H      0.700000000000     0.198500000000     0.598333333333    -0.0302955  
C9       C      0.722850000000     0.112350000000     0.532066666667     0.515566   
H9       H      0.703595000000     0.109233000000     0.546433000000    -0.137043   
C13      C      0.750000000000     0.201050000000     0.595500000000    -0.32891    
H13      H      0.750000000000     0.218000000000     0.573666666667     0.119137   
H5       H      0.750000000000     0.126000000000     0.439666666667    -0.146561   
Al01     Al     0.872960000000     0.406870000000     0.473266666667     5.95235    
O002     O      0.874650000000     0.379705000000     0.428766666667    -2.1515     
O003     O      0.916750000000     0.415600000000     0.468600000000    -1.42371    
O006     O      0.829150000000     0.401850000000     0.481133333333    -1.44481    
O1       O      0.864150000000     0.440700000000     0.433633333333    -1.37517    
O2       O      0.869700000000     0.439200000000     0.514600000000    -1.45071    
C2       C      0.883600000000     0.442500000000     0.548166666667     1.18297    
C4       C      0.845900000000     0.441000000000     0.403900000000     1.091      
C1       C      0.833950000000     0.471450000000     0.387300000000    -0.438932   
C5       C      0.877700000000     0.000000000000     0.551500000000     0.574808   
C7       C      0.888550000000     0.000000000000     0.637700000000    -0.579639   
H7       H      0.889702500000     0.000000000000     0.333932333333     0.22668    
C3       C      0.845550000000     0.000000000000     0.405300000000     0.27816    
C6       C      0.882300000000     0.471850000000     0.572000000000    -0.649485   
C8       C      0.809900000000     0.472350000000     0.358966666667     0.286002   
H8       H      0.801500000000     0.450000000000     0.348333333333    -0.0303301  
C9       C      0.887650000000     0.472850000000     0.615400000000     0.51561    
H9       H      0.890767000000     0.453595000000     0.629766333333    -0.136973   
C13      C      0.798950000000     0.000000000000     0.345500000000    -0.330934   
H13      H      0.782000000000     0.000000000000     0.657000000000     0.119364   
H5       H      0.874000000000     0.000000000000     0.523000000000    -0.146422   
Al01     Al     0.593130000000     0.122960000000     0.556600000000     5.95237    
O002     O      0.620295000000     0.124650000000     0.512100000000    -2.15151    
O003     O      0.584400000000     0.166750000000     0.551933333333    -1.42376    
O006     O      0.598150000000     0.079150000000     0.564466666667    -1.44484    
O1       O      0.559300000000     0.114150000000     0.516966666667    -1.37519    
O2       O      0.560800000000     0.119700000000     0.597933333333    -1.45074    
C2       C      0.557500000000     0.133600000000     0.631500000000     1.18299    
C4       C      0.559000000000     0.095900000000     0.487233333333     1.09097    
C1       C      0.528550000000     0.083950000000     0.470633333333    -0.438927   
C5       C      0.500000000000     0.127700000000     0.634833333333     0.576238   
C7       C      0.500000000000     0.138550000000     0.387700000000    -0.577525   
H7       H      0.500000000000     0.139702500000     0.417265666667     0.226307   
C3       C      0.500000000000     0.095550000000     0.488633333333     0.279298   
C6       C      0.528150000000     0.132300000000     0.655333333333    -0.649536   
C8       C      0.527650000000     0.059900000000     0.442300000000     0.285887   
H8       H      0.550000000000     0.051500000000     0.431666666667    -0.030434   
C9       C      0.527150000000     0.137650000000     0.365400000000     0.515563   
H9       H      0.546405000000     0.140767000000     0.379766333333    -0.137043   
C13      C      0.500000000000     0.048950000000     0.428833333333    -0.328946   
H13      H      0.500000000000     0.032000000000     0.407000000000     0.118816   
H5       H      0.500000000000     0.124000000000     0.606333333333    -0.146553   
Al01     Al     0.877040000000     0.343130000000     0.639933333333     5.95248    
O002     O      0.875350000000     0.370295000000     0.595433333333    -2.15154    
O003     O      0.833250000000     0.334400000000     0.635266666667    -1.42377    
O006     O      0.920850000000     0.348150000000     0.647800000000    -1.44473    
O1       O      0.885850000000     0.309300000000     0.600300000000    -1.37517    
O2       O      0.880300000000     0.310800000000     0.347933333333    -1.45068    
C2       C      0.866400000000     0.307500000000     0.381500000000     1.18295    
C4       C      0.904100000000     0.309000000000     0.570566666667     1.09104    
C1       C      0.916050000000     0.278550000000     0.553966666667    -0.438894   
C5       C      0.872300000000     0.250000000000     0.384833333333     0.57622    
C7       C      0.861450000000     0.250000000000     0.471033333333    -0.577485   
H7       H      0.860297500000     0.250000000000     0.500599000000     0.226303   
C3       C      0.904450000000     0.250000000000     0.571966666667     0.279433   
C6       C      0.867700000000     0.278150000000     0.405333333333    -0.64952    
C8       C      0.940100000000     0.277650000000     0.525633333333     0.286119   
H8       H      0.948500000000     0.300000000000     0.515000000000    -0.0301746  
C9       C      0.862350000000     0.277150000000     0.448733333333     0.51557    
H9       H      0.859233000000     0.296405000000     0.463099666667    -0.137023   
C13      C      0.951050000000     0.250000000000     0.512166666667    -0.328872   
H13      H      0.968000000000     0.250000000000     0.490333333333     0.119349   
H5       H      0.876000000000     0.250000000000     0.356333333333    -0.14653    
Al01     Al     0.843130000000     0.127040000000     0.389933333333     5.95226    
O002     O      0.870295000000     0.125350000000     0.345433333333    -2.15151    
O003     O      0.834400000000     0.083250000000     0.385266666667    -1.42378    
O006     O      0.848150000000     0.170850000000     0.397800000000    -1.44479    
O1       O      0.809300000000     0.135850000000     0.350300000000    -1.37519    
O2       O      0.810800000000     0.130300000000     0.431266666667    -1.45072    
C2       C      0.807500000000     0.116400000000     0.464833333333     1.18295    
C4       C      0.809000000000     0.154100000000     0.653900000000     1.09104    
C1       C      0.778550000000     0.166050000000     0.637300000000    -0.438914   
C6       C      0.778150000000     0.117700000000     0.488666666667    -0.649569   
C8       C      0.777650000000     0.190100000000     0.608966666667     0.286049   
H8       H      0.800000000000     0.198500000000     0.598333333333    -0.0302963  
C9       C      0.777150000000     0.112350000000     0.532066666667     0.515567   
H9       H      0.796405000000     0.109233000000     0.546433000000    -0.137044   
Al01     Al     0.872960000000     0.093130000000     0.473266666667     5.95229    
O002     O      0.874650000000     0.120295000000     0.428766666667    -2.15149    
O003     O      0.916750000000     0.084400000000     0.468600000000    -1.42374    
O006     O      0.829150000000     0.098150000000     0.481133333333    -1.44483    
O1       O      0.864150000000     0.059300000000     0.433633333333    -1.37523    
O2       O      0.869700000000     0.060800000000     0.514600000000    -1.45077    
C2       C      0.883600000000     0.057500000000     0.548166666667     1.18292    
C4       C      0.845900000000     0.059000000000     0.403900000000     1.09099    
C1       C      0.833950000000     0.028550000000     0.387300000000    -0.439034   
C6       C      0.882300000000     0.028150000000     0.572000000000    -0.649537   
C8       C      0.809900000000     0.027650000000     0.358966666667     0.286609   
H8       H      0.801500000000     0.050000000000     0.348333333333    -0.030546   
C9       C      0.887650000000     0.027150000000     0.615400000000     0.51627    
H9       H      0.890767000000     0.046405000000     0.629766333333    -0.13725    
Al01     Al     0.906870000000     0.122960000000     0.556600000000     5.95234    
O002     O      0.879705000000     0.124650000000     0.512100000000    -2.15151    
O003     O      0.915600000000     0.166750000000     0.551933333333    -1.42369    
O006     O      0.901850000000     0.079150000000     0.564466666667    -1.44478    
O1       O      0.940700000000     0.114150000000     0.516966666667    -1.37492    
O2       O      0.939200000000     0.119700000000     0.597933333333    -1.45049    
C2       C      0.942500000000     0.133600000000     0.631500000000     1.18288    
C4       C      0.941000000000     0.095900000000     0.487233333333     1.09089    
C1       C      0.971450000000     0.083950000000     0.470633333333    -0.438227   
C6       C      0.971850000000     0.132300000000     0.655333333333    -0.648778   
C8       C      0.972350000000     0.059900000000     0.442300000000     0.287441   
H8       H      0.950000000000     0.051500000000     0.431666666667    -0.0306793  
C9       C      0.972850000000     0.137650000000     0.365400000000     0.517307   
H9       H      0.953595000000     0.140767000000     0.379766333333    -0.137466   
Al01     Al     0.877040000000     0.156870000000     0.639933333333     5.95249    
O002     O      0.875350000000     0.129705000000     0.595433333333    -2.15154    
O003     O      0.833250000000     0.165600000000     0.635266666667    -1.42377    
O006     O      0.920850000000     0.151850000000     0.647800000000    -1.44473    
O1       O      0.885850000000     0.190700000000     0.600300000000    -1.37517    
O2       O      0.880300000000     0.189200000000     0.347933333333    -1.45068    
C2       C      0.866400000000     0.192500000000     0.381500000000     1.18295    
C4       C      0.904100000000     0.191000000000     0.570566666667     1.09105    
C1       C      0.916050000000     0.221450000000     0.553966666667    -0.438892   
C6       C      0.867700000000     0.221850000000     0.405333333333    -0.649518   
C8       C      0.940100000000     0.222350000000     0.525633333333     0.28612    
H8       H      0.948500000000     0.200000000000     0.515000000000    -0.0301722  
C9       C      0.862350000000     0.222850000000     0.448733333333     0.515571   
H9       H      0.859233000000     0.203595000000     0.463099666667    -0.13702    
Al01     Al     0.906870000000     0.377040000000     0.889933333333     5.95176    
O002     O      0.879705000000     0.375350000000     0.845433333333    -2.15165    
O003     O      0.915600000000     0.333250000000     0.885266666667    -1.42228    
O006     O      0.901850000000     0.420850000000     0.897800000000    -1.44674    
O1       O      0.940700000000     0.385850000000     0.850300000000    -1.37463    
O2       O      0.939200000000     0.380300000000     0.931266666667    -1.45294    
C2       C      0.942500000000     0.366400000000     0.964833333333     1.191      
C4       C      0.941000000000     0.404100000000     0.820566666667     1.09085    
C1       C      0.971450000000     0.416050000000     0.803966666667    -0.438211   
C5       C      0.500000000000     0.372300000000     0.968166666667     0.603856   
C7       C      0.500000000000     0.361450000000     0.721033333333    -0.57746    
H7       H      0.500000000000     0.360297500000     0.750599000000     0.226342   
C3       C      0.500000000000     0.404450000000     0.821966666667     0.279392   
C6       C      0.971850000000     0.367700000000     0.988666666667    -0.683612   
C8       C      0.972350000000     0.440100000000     0.775633333333     0.287545   
H8       H      0.950000000000     0.448500000000     0.765000000000    -0.030518   
C9       C      0.972850000000     0.362350000000     0.698733333333     0.517353   
H9       H      0.953595000000     0.359233000000     0.713099666667    -0.13742    
C13      C      0.500000000000     0.451050000000     0.762166666667    -0.328909   
H13      H      0.500000000000     0.468000000000     0.740333333333     0.119146   
H5       H      0.500000000000     0.376000000000     0.939666666667    -0.156197   
Al01     Al     0.622960000000     0.156870000000     0.973266666667     5.89809    
O002     O      0.624650000000     0.129705000000     0.928766666667    -2.14389    
O003     O      0.666750000000     0.165600000000     0.968600000000    -1.4133     
O006     O      0.579150000000     0.151850000000     0.981133333333    -1.44353    
O1       O      0.614150000000     0.190700000000     0.933633333333    -1.36866    
O2       O      0.619700000000     0.189200000000     0.681266666667    -1.4507     
C2       C      0.633600000000     0.192500000000     0.714833333333     1.18299    
C4       C      0.595900000000     0.191000000000     0.903900000000     1.08758    
C1       C      0.583950000000     0.221450000000     0.887300000000    -0.437533   
C5       C      0.627700000000     0.250000000000     0.718166666667     0.576209   
C7       C      0.638550000000     0.250000000000     0.804366666667    -0.577328   
H7       H      0.639702500000     0.250000000000     0.833932333333     0.226217   
C3       C      0.595550000000     0.250000000000     0.905300000000     0.276068   
C6       C      0.632300000000     0.221850000000     0.738666666667    -0.649442   
C8       C      0.559900000000     0.222350000000     0.858966666667     0.284729   
H8       H      0.551500000000     0.200000000000     0.848333333333    -0.0299993  
C9       C      0.637650000000     0.222850000000     0.782066666667     0.515533   
H9       H      0.640767000000     0.203595000000     0.796433000000    -0.136952   
C13      C      0.548950000000     0.250000000000     0.845500000000    -0.328002   
H13      H      0.532000000000     0.250000000000     0.823666666667     0.118831   
H5       H      0.624000000000     0.250000000000     0.689666666667    -0.146501   
Al01     Al     0.843130000000     0.372960000000     0.723266666667     5.95251    
O002     O      0.870295000000     0.374650000000     0.678766666667    -2.15153    
O003     O      0.834400000000     0.416750000000     0.718600000000    -1.42377    
O006     O      0.848150000000     0.329150000000     0.731133333333    -1.44479    
O1       O      0.809300000000     0.364150000000     0.683633333333    -1.37519    
O2       O      0.810800000000     0.369700000000     0.764600000000    -1.45072    
C2       C      0.807500000000     0.383600000000     0.798166666667     1.18302    
C4       C      0.809000000000     0.345900000000     0.987233333333     1.06834    
C1       C      0.778550000000     0.333950000000     0.970633333333    -0.430141   
C5       C      0.750000000000     0.377700000000     0.801500000000     0.576213   
C7       C      0.750000000000     0.388550000000     0.887700000000    -0.577483   
H7       H      0.750000000000     0.389702500000     0.917265666667     0.224992   
C3       C      0.750000000000     0.345550000000     0.988633333333     0.267342   
C6       C      0.778150000000     0.382300000000     0.822000000000    -0.649538   
C8       C      0.777650000000     0.309900000000     0.942300000000     0.278424   
H8       H      0.800000000000     0.301500000000     0.931666666667    -0.0290206  
C9       C      0.777150000000     0.387650000000     0.865400000000     0.515363   
H9       H      0.796405000000     0.390767000000     0.879766333333    -0.137515   
C13      C      0.750000000000     0.298950000000     0.928833333333    -0.32294    
H13      H      0.750000000000     0.282000000000     0.907000000000     0.11713    
H5       H      0.750000000000     0.374000000000     0.773000000000    -0.146514   
Al01     Al     0.627040000000     0.093130000000     0.806600000000     5.95278    
O002     O      0.625350000000     0.120295000000     0.762100000000    -2.15156    
O003     O      0.583250000000     0.084400000000     0.801933333333    -1.42378    
O006     O      0.670850000000     0.098150000000     0.814466666667    -1.44502    
O1       O      0.635850000000     0.059300000000     0.766966666667    -1.3752     
O2       O      0.630300000000     0.060800000000     0.847933333333    -1.45259    
C2       C      0.616400000000     0.057500000000     0.881500000000     1.18842    
C4       C      0.654100000000     0.059000000000     0.737233333333     1.09102    
C1       C      0.666050000000     0.028550000000     0.720633333333    -0.439038   
C5       C      0.622300000000     0.000000000000     0.884833333333     0.589185   
C7       C      0.611450000000     0.000000000000     0.971033333333    -0.62752    
H7       H      0.610297500000     0.000000000000     0.667265666667     0.226714   
C3       C      0.654450000000     0.000000000000     0.738633333333     0.27824    
C6       C      0.617700000000     0.028150000000     0.905333333333    -0.665589   
C8       C      0.690100000000     0.027650000000     0.692300000000     0.286638   
H8       H      0.698500000000     0.050000000000     0.681666666667    -0.0305148  
C9       C      0.612350000000     0.027150000000     0.948733333333     0.543243   
H9       H      0.609233000000     0.046405000000     0.963099666667    -0.149682   
C13      C      0.701050000000     0.000000000000     0.678833333333    -0.330921   
H13      H      0.718000000000     0.000000000000     0.990333333333     0.101395   
H5       H      0.626000000000     0.000000000000     0.856333333333    -0.151391   
Al01     Al     0.593130000000     0.377040000000     0.889933333333     5.9518     
O002     O      0.620295000000     0.375350000000     0.845433333333    -2.15165    
O003     O      0.584400000000     0.333250000000     0.885266666667    -1.42235    
O006     O      0.598150000000     0.420850000000     0.897800000000    -1.4468     
O1       O      0.559300000000     0.385850000000     0.850300000000    -1.3749     
O2       O      0.560800000000     0.380300000000     0.931266666667    -1.45321    
C2       C      0.557500000000     0.366400000000     0.964833333333     1.19114    
C4       C      0.559000000000     0.404100000000     0.820566666667     1.09093    
C1       C      0.528550000000     0.416050000000     0.803966666667    -0.438913   
C6       C      0.528150000000     0.367700000000     0.988666666667    -0.684486   
C8       C      0.527650000000     0.440100000000     0.775633333333     0.285984   
H8       H      0.550000000000     0.448500000000     0.765000000000    -0.0302715  
C9       C      0.527150000000     0.362350000000     0.698733333333     0.515603   
H9       H      0.546405000000     0.359233000000     0.713099666667    -0.136996   
Al01     Al     0.622960000000     0.343130000000     0.973266666667     5.89802    
O002     O      0.624650000000     0.370295000000     0.928766666667    -2.14388    
O003     O      0.666750000000     0.334400000000     0.968600000000    -1.41329    
O006     O      0.579150000000     0.348150000000     0.981133333333    -1.44352    
O1       O      0.614150000000     0.309300000000     0.933633333333    -1.36865    
O2       O      0.619700000000     0.310800000000     0.681266666667    -1.4507     
C2       C      0.633600000000     0.307500000000     0.714833333333     1.18299    
C4       C      0.595900000000     0.309000000000     0.903900000000     1.08758    
C1       C      0.583950000000     0.278550000000     0.887300000000    -0.437533   
C6       C      0.632300000000     0.278150000000     0.738666666667    -0.649444   
C8       C      0.559900000000     0.277650000000     0.858966666667     0.284728   
H8       H      0.551500000000     0.300000000000     0.848333333333    -0.0300016  
C9       C      0.637650000000     0.277150000000     0.782066666667     0.515532   
H9       H      0.640767000000     0.296405000000     0.796433000000    -0.136955   
Al01     Al     0.656870000000     0.372960000000     0.723266666667     5.95249    
O002     O      0.629705000000     0.374650000000     0.678766666667    -2.15154    
O003     O      0.665600000000     0.416750000000     0.718600000000    -1.42377    
O006     O      0.651850000000     0.329150000000     0.731133333333    -1.44479    
O1       O      0.690700000000     0.364150000000     0.683633333333    -1.37518    
O2       O      0.689200000000     0.369700000000     0.764600000000    -1.45071    
C2       C      0.692500000000     0.383600000000     0.798166666667     1.18301    
C4       C      0.691000000000     0.345900000000     0.987233333333     1.06832    
C1       C      0.721450000000     0.333950000000     0.970633333333    -0.430135   
C6       C      0.721850000000     0.382300000000     0.822000000000    -0.649536   
C8       C      0.722350000000     0.309900000000     0.942300000000     0.278422   
H8       H      0.700000000000     0.301500000000     0.931666666667    -0.02902    
C9       C      0.722850000000     0.387650000000     0.865400000000     0.515362   
H9       H      0.703595000000     0.390767000000     0.879766333333    -0.137514   
Al01     Al     0.627040000000     0.406870000000     0.806600000000     5.95283    
O002     O      0.625350000000     0.379705000000     0.762100000000    -2.15157    
O003     O      0.583250000000     0.415600000000     0.801933333333    -1.42376    
O006     O      0.670850000000     0.401850000000     0.814466666667    -1.445      
O1       O      0.635850000000     0.440700000000     0.766966666667    -1.37514    
O2       O      0.630300000000     0.439200000000     0.847933333333    -1.45254    
C2       C      0.616400000000     0.442500000000     0.881500000000     1.18849    
C4       C      0.654100000000     0.441000000000     0.737233333333     1.09103    
C1       C      0.666050000000     0.471450000000     0.720633333333    -0.438935   
C6       C      0.617700000000     0.471850000000     0.905333333333    -0.665592   
C8       C      0.690100000000     0.472350000000     0.692300000000     0.286032   
H8       H      0.698500000000     0.450000000000     0.681666666667    -0.0302994  
C9       C      0.612350000000     0.472850000000     0.948733333333     0.542678   
H9       H      0.609233000000     0.453595000000     0.963099666667    -0.149446   
Al01     Al     0.656870000000     0.127040000000     0.723266666667     5.95249    
O002     O      0.629705000000     0.125350000000     0.678766666667    -2.15154    
O003     O      0.665600000000     0.083250000000     0.718600000000    -1.42379    
O006     O      0.651850000000     0.170850000000     0.731133333333    -1.44478    
O1       O      0.690700000000     0.135850000000     0.683633333333    -1.37519    
O2       O      0.689200000000     0.130300000000     0.764600000000    -1.45071    
C2       C      0.692500000000     0.116400000000     0.798166666667     1.18301    
C4       C      0.691000000000     0.154100000000     0.987233333333     1.06835    
C1       C      0.721450000000     0.166050000000     0.970633333333    -0.430147   
C5       C      0.750000000000     0.122300000000     0.801500000000     0.576209   
C7       C      0.750000000000     0.111450000000     0.887700000000    -0.577515   
H7       H      0.750000000000     0.110297500000     0.917265666667     0.224981   
C3       C      0.750000000000     0.154450000000     0.988633333333     0.267354   
C6       C      0.721850000000     0.117700000000     0.822000000000    -0.64956    
C8       C      0.722350000000     0.190100000000     0.942300000000     0.278433   
H8       H      0.700000000000     0.198500000000     0.931666666667    -0.0290212  
C9       C      0.722850000000     0.112350000000     0.865400000000     0.515348   
H9       H      0.703595000000     0.109233000000     0.879766333333    -0.137531   
C13      C      0.750000000000     0.201050000000     0.928833333333    -0.322947   
H13      H      0.750000000000     0.218000000000     0.907000000000     0.117133   
H5       H      0.750000000000     0.126000000000     0.773000000000    -0.146523   
Al01     Al     0.872960000000     0.406870000000     0.806600000000     5.95288    
O002     O      0.874650000000     0.379705000000     0.762100000000    -2.15156    
O003     O      0.916750000000     0.415600000000     0.801933333333    -1.4237     
O006     O      0.829150000000     0.401850000000     0.814466666667    -1.44501    
O1       O      0.864150000000     0.440700000000     0.766966666667    -1.37513    
O2       O      0.869700000000     0.439200000000     0.847933333333    -1.45254    
C2       C      0.883600000000     0.442500000000     0.881500000000     1.18848    
C4       C      0.845900000000     0.441000000000     0.737233333333     1.09104    
C1       C      0.833950000000     0.471450000000     0.720633333333    -0.438938   
C5       C      0.877700000000     0.000000000000     0.884833333333     0.589159   
C7       C      0.888550000000     0.000000000000     0.971033333333    -0.627371   
H7       H      0.889702500000     0.000000000000     0.667265666667     0.226753   
C3       C      0.845550000000     0.000000000000     0.738633333333     0.278271   
C6       C      0.882300000000     0.471850000000     0.905333333333    -0.665516   
C8       C      0.809900000000     0.472350000000     0.692300000000     0.286034   
H8       H      0.801500000000     0.450000000000     0.681666666667    -0.0303003  
C9       C      0.887650000000     0.472850000000     0.948733333333     0.542641   
H9       H      0.890767000000     0.453595000000     0.963099666667    -0.149383   
C13      C      0.798950000000     0.000000000000     0.678833333333    -0.330923   
H13      H      0.782000000000     0.000000000000     0.990333333333     0.101404   
H5       H      0.874000000000     0.000000000000     0.856333333333    -0.151359   
Al01     Al     0.593130000000     0.122960000000     0.889933333333     5.9518     
O002     O      0.620295000000     0.124650000000     0.845433333333    -2.15164    
O003     O      0.584400000000     0.166750000000     0.885266666667    -1.42234    
O006     O      0.598150000000     0.079150000000     0.897800000000    -1.44684    
O1       O      0.559300000000     0.114150000000     0.850300000000    -1.3749     
O2       O      0.560800000000     0.119700000000     0.931266666667    -1.45323    
C2       C      0.557500000000     0.133600000000     0.964833333333     1.19114    
C4       C      0.559000000000     0.095900000000     0.820566666667     1.0909     
C1       C      0.528550000000     0.083950000000     0.803966666667    -0.438916   
C5       C      0.500000000000     0.127700000000     0.968166666667     0.603811   
C7       C      0.500000000000     0.138550000000     0.721033333333    -0.577474   
H7       H      0.500000000000     0.139702500000     0.750599000000     0.226352   
C3       C      0.500000000000     0.095550000000     0.821966666667     0.27933    
C6       C      0.528150000000     0.132300000000     0.988666666667    -0.68446    
C8       C      0.527650000000     0.059900000000     0.775633333333     0.285857   
H8       H      0.550000000000     0.051500000000     0.765000000000    -0.0303843  
C9       C      0.527150000000     0.137650000000     0.698733333333     0.515609   
H9       H      0.546405000000     0.140767000000     0.713099666667    -0.137      
C13      C      0.500000000000     0.048950000000     0.762166666667    -0.32893    
H13      H      0.500000000000     0.032000000000     0.740333333333     0.118861   
H5       H      0.500000000000     0.124000000000     0.939666666667    -0.156207   
Al01     Al     0.877040000000     0.343130000000     0.973266666667     5.89814    
O002     O      0.875350000000     0.370295000000     0.928766666667    -2.14389    
O003     O      0.833250000000     0.334400000000     0.968600000000    -1.41331    
O006     O      0.920850000000     0.348150000000     0.981133333333    -1.44345    
O1       O      0.885850000000     0.309300000000     0.933633333333    -1.36865    
O2       O      0.880300000000     0.310800000000     0.681266666667    -1.45068    
C2       C      0.866400000000     0.307500000000     0.714833333333     1.183      
C4       C      0.904100000000     0.309000000000     0.903900000000     1.0876     
C1       C      0.916050000000     0.278550000000     0.887300000000    -0.43751    
C5       C      0.872300000000     0.250000000000     0.718166666667     0.576219   
C7       C      0.861450000000     0.250000000000     0.804366666667    -0.577313   
H7       H      0.860297500000     0.250000000000     0.833932333333     0.226212   
C3       C      0.904450000000     0.250000000000     0.905300000000     0.276119   
C6       C      0.867700000000     0.278150000000     0.738666666667    -0.649416   
C8       C      0.940100000000     0.277650000000     0.858966666667     0.284816   
H8       H      0.948500000000     0.300000000000     0.848333333333    -0.0298684  
C9       C      0.862350000000     0.277150000000     0.782066666667     0.515534   
H9       H      0.859233000000     0.296405000000     0.796433000000    -0.136947   
C13      C      0.951050000000     0.250000000000     0.845500000000    -0.327959   
H13      H      0.968000000000     0.250000000000     0.823666666667     0.11906    
H5       H      0.876000000000     0.250000000000     0.689666666667    -0.146478   
Al01     Al     0.843130000000     0.127040000000     0.723266666667     5.95251    
O002     O      0.870295000000     0.125350000000     0.678766666667    -2.15154    
O003     O      0.834400000000     0.083250000000     0.718600000000    -1.42379    
O006     O      0.848150000000     0.170850000000     0.731133333333    -1.44478    
O1       O      0.809300000000     0.135850000000     0.683633333333    -1.37519    
O2       O      0.810800000000     0.130300000000     0.764600000000    -1.45072    
C2       C      0.807500000000     0.116400000000     0.798166666667     1.18301    
C4       C      0.809000000000     0.154100000000     0.987233333333     1.06837    
C1       C      0.778550000000     0.166050000000     0.970633333333    -0.430152   
C6       C      0.778150000000     0.117700000000     0.822000000000    -0.649562   
C8       C      0.777650000000     0.190100000000     0.942300000000     0.278436   
H8       H      0.800000000000     0.198500000000     0.931666666667    -0.0290218  
C9       C      0.777150000000     0.112350000000     0.865400000000     0.515348   
H9       H      0.796405000000     0.109233000000     0.879766333333    -0.137532   
Al01     Al     0.872960000000     0.093130000000     0.806600000000     5.95282    
O002     O      0.874650000000     0.120295000000     0.762100000000    -2.15154    
O003     O      0.916750000000     0.084400000000     0.801933333333    -1.42373    
O006     O      0.829150000000     0.098150000000     0.814466666667    -1.44503    
O1       O      0.864150000000     0.059300000000     0.766966666667    -1.37519    
O2       O      0.869700000000     0.060800000000     0.847933333333    -1.45259    
C2       C      0.883600000000     0.057500000000     0.881500000000     1.18841    
C4       C      0.845900000000     0.059000000000     0.737233333333     1.09103    
C1       C      0.833950000000     0.028550000000     0.720633333333    -0.43904    
C6       C      0.882300000000     0.028150000000     0.905333333333    -0.665513   
C8       C      0.809900000000     0.027650000000     0.692300000000     0.28664    
H8       H      0.801500000000     0.050000000000     0.681666666667    -0.0305157  
C9       C      0.887650000000     0.027150000000     0.948733333333     0.543205   
H9       H      0.890767000000     0.046405000000     0.963099666667    -0.149619   
Al01     Al     0.906870000000     0.122960000000     0.889933333333     5.95176    
O002     O      0.879705000000     0.124650000000     0.845433333333    -2.15163    
O003     O      0.915600000000     0.166750000000     0.885266666667    -1.42228    
O006     O      0.901850000000     0.079150000000     0.897800000000    -1.44678    
O1       O      0.940700000000     0.114150000000     0.850300000000    -1.37464    
O2       O      0.939200000000     0.119700000000     0.931266666667    -1.45297    
C2       C      0.942500000000     0.133600000000     0.964833333333     1.19099    
C4       C      0.941000000000     0.095900000000     0.820566666667     1.09082    
C1       C      0.971450000000     0.083950000000     0.803966666667    -0.438215   
C6       C      0.971850000000     0.132300000000     0.988666666667    -0.683587   
C8       C      0.972350000000     0.059900000000     0.775633333333     0.287414   
H8       H      0.950000000000     0.051500000000     0.765000000000    -0.0306298  
C9       C      0.972850000000     0.137650000000     0.698733333333     0.517357   
H9       H      0.953595000000     0.140767000000     0.713099666667    -0.137422   
Al01     Al     0.877040000000     0.156870000000     0.973266666667     5.89821    
O002     O      0.875350000000     0.129705000000     0.928766666667    -2.1439     
O003     O      0.833250000000     0.165600000000     0.968600000000    -1.41332    
O006     O      0.920850000000     0.151850000000     0.981133333333    -1.44345    
O1       O      0.885850000000     0.190700000000     0.933633333333    -1.36866    
O2       O      0.880300000000     0.189200000000     0.681266666667    -1.45068    
C2       C      0.866400000000     0.192500000000     0.714833333333     1.183      
C4       C      0.904100000000     0.191000000000     0.903900000000     1.08761    
C1       C      0.916050000000     0.221450000000     0.887300000000    -0.43751    
C6       C      0.867700000000     0.221850000000     0.738666666667    -0.649415   
C8       C      0.940100000000     0.222350000000     0.858966666667     0.284817   
H8       H      0.948500000000     0.200000000000     0.848333333333    -0.0298663  
C9       C      0.862350000000     0.222850000000     0.782066666667     0.515534   
H9       H      0.859233000000     0.203595000000     0.796433000000    -0.136945   
Al01     Al     0.906870000000     0.877040000000     0.223266666667     5.952      
O002     O      0.879705000000     0.875350000000     0.178766666667    -2.1512     
O003     O      0.915600000000     0.833250000000     0.218600000000    -1.42361    
O006     O      0.901850000000     0.920850000000     0.231133333333    -1.44463    
O1       O      0.940700000000     0.885850000000     0.183633333333    -1.37481    
O2       O      0.939200000000     0.880300000000     0.264600000000    -1.45042    
C2       C      0.942500000000     0.866400000000     0.298166666667     1.18281    
C4       C      0.941000000000     0.904100000000     0.153900000000     1.0909     
C1       C      0.971450000000     0.916050000000     0.137300000000    -0.438104   
C5       C      0.500000000000     0.872300000000     0.301500000000     0.576205   
C7       C      0.500000000000     0.861450000000     0.054366666667    -0.615119   
H7       H      0.500000000000     0.860297500000     0.083932333333     0.23976    
C3       C      0.500000000000     0.904450000000     0.155300000000     0.279154   
C6       C      0.971850000000     0.867700000000     0.322000000000    -0.648778   
C8       C      0.972350000000     0.940100000000     0.108966666667     0.288223   
H8       H      0.950000000000     0.948500000000     0.098333333333    -0.0295784  
C9       C      0.972850000000     0.862350000000     0.032066666667     0.560774   
H9       H      0.953595000000     0.859233000000     0.046433000000    -0.14895    
C13      C      0.500000000000     0.951050000000     0.095500000000    -0.328633   
H13      H      0.500000000000     0.968000000000     0.073666666667     0.121081   
H5       H      0.500000000000     0.876000000000     0.273000000000    -0.146544   
Al01     Al     0.622960000000     0.656870000000     0.306600000000     5.95215    
O002     O      0.624650000000     0.629705000000     0.262100000000    -2.15147    
O003     O      0.666750000000     0.665600000000     0.301933333333    -1.42374    
O006     O      0.579150000000     0.651850000000     0.314466666667    -1.4448     
O1       O      0.614150000000     0.690700000000     0.266966666667    -1.37516    
O2       O      0.619700000000     0.689200000000     0.014600000000    -1.43332    
C2       C      0.633600000000     0.692500000000     0.048166666667     1.17691    
C4       C      0.595900000000     0.691000000000     0.237233333333     1.09097    
C1       C      0.583950000000     0.721450000000     0.220633333333    -0.438945   
C5       C      0.627700000000     0.750000000000     0.051500000000     0.570827   
C7       C      0.638550000000     0.750000000000     0.137700000000    -0.572581   
H7       H      0.639702500000     0.750000000000     0.167265666667     0.224759   
C3       C      0.595550000000     0.750000000000     0.238633333333     0.27938    
C6       C      0.632300000000     0.721850000000     0.072000000000    -0.642889   
C8       C      0.559900000000     0.722350000000     0.192300000000     0.286171   
H8       H      0.551500000000     0.700000000000     0.181666666667    -0.0301695  
C9       C      0.637650000000     0.722850000000     0.115400000000     0.511178   
H9       H      0.640767000000     0.703595000000     0.129766333333    -0.135289   
C13      C      0.548950000000     0.750000000000     0.178833333333    -0.328974   
H13      H      0.532000000000     0.750000000000     0.157000000000     0.119636   
H5       H      0.624000000000     0.750000000000     0.023000000000    -0.141474   
Al01     Al     0.843130000000     0.872960000000     0.056600000000     5.94317    
O002     O      0.870295000000     0.874650000000     0.012100000000    -2.13366    
O003     O      0.834400000000     0.916750000000     0.051933333333    -1.42035    
O006     O      0.848150000000     0.829150000000     0.064466666667    -1.43947    
O1       O      0.809300000000     0.864150000000     0.016966666667    -1.35829    
O2       O      0.810800000000     0.869700000000     0.097933333333    -1.44853    
C2       C      0.807500000000     0.883600000000     0.131500000000     1.18196    
C4       C      0.809000000000     0.845900000000     0.320566666667     1.09099    
C1       C      0.778550000000     0.833950000000     0.303966666667    -0.438948   
C5       C      0.750000000000     0.877700000000     0.134833333333     0.575077   
C7       C      0.750000000000     0.888550000000     0.221033333333    -0.576559   
H7       H      0.750000000000     0.889702500000     0.250599000000     0.226018   
C3       C      0.750000000000     0.845550000000     0.321966666667     0.279359   
C6       C      0.778150000000     0.882300000000     0.155333333333    -0.648295   
C8       C      0.777650000000     0.809900000000     0.275633333333     0.286063   
H8       H      0.800000000000     0.801500000000     0.265000000000    -0.0302783  
C9       C      0.777150000000     0.887650000000     0.198733333333     0.514712   
H9       H      0.796405000000     0.890767000000     0.213099666667    -0.13671    
C13      C      0.750000000000     0.798950000000     0.262166666667    -0.328959   
H13      H      0.750000000000     0.782000000000     0.240333333333     0.119303   
H5       H      0.750000000000     0.874000000000     0.106333333333    -0.145136   
Al01     Al     0.627040000000     0.593130000000     0.139933333333     5.95091    
O002     O      0.625350000000     0.620295000000     0.095433333333    -2.1491     
O003     O      0.583250000000     0.584400000000     0.135266666667    -1.4231     
O006     O      0.670850000000     0.598150000000     0.147800000000    -1.44428    
O1       O      0.635850000000     0.559300000000     0.100300000000    -1.37364    
O2       O      0.630300000000     0.560800000000     0.181266666667    -1.4505     
C2       C      0.616400000000     0.557500000000     0.214833333333     1.18281    
C4       C      0.654100000000     0.559000000000     0.070566666667     1.08837    
C1       C      0.666050000000     0.528550000000     0.053966666667    -0.43092    
C5       C      0.622300000000     0.500000000000     0.218166666667     0.57609    
C7       C      0.611450000000     0.500000000000     0.304366666667    -0.577452   
H7       H      0.610297500000     0.500000000000     0.000599000000     0.250768   
C3       C      0.654450000000     0.500000000000     0.071966666667     0.27508    
C6       C      0.617700000000     0.528150000000     0.238666666667    -0.649476   
C8       C      0.690100000000     0.527650000000     0.025633333333     0.27181    
H8       H      0.698500000000     0.550000000000     0.015000000000    -0.0232584  
C9       C      0.612350000000     0.527150000000     0.282066666667     0.515473   
H9       H      0.609233000000     0.546405000000     0.296433000000    -0.137027   
C13      C      0.701050000000     0.500000000000     0.012166666667    -0.297231   
H13      H      0.718000000000     0.500000000000     0.323666666667     0.119092   
H5       H      0.626000000000     0.500000000000     0.189666666667    -0.146466   
Al01     Al     0.593130000000     0.877040000000     0.223266666667     5.95204    
O002     O      0.620295000000     0.875350000000     0.178766666667    -2.15121    
O003     O      0.584400000000     0.833250000000     0.218600000000    -1.42368    
O006     O      0.598150000000     0.920850000000     0.231133333333    -1.44469    
O1       O      0.559300000000     0.885850000000     0.183633333333    -1.37507    
O2       O      0.560800000000     0.880300000000     0.264600000000    -1.45067    
C2       C      0.557500000000     0.866400000000     0.298166666667     1.18292    
C4       C      0.559000000000     0.904100000000     0.153900000000     1.09099    
C1       C      0.528550000000     0.916050000000     0.137300000000    -0.438803   
C6       C      0.528150000000     0.867700000000     0.322000000000    -0.649534   
C8       C      0.527650000000     0.940100000000     0.108966666667     0.286676   
H8       H      0.550000000000     0.948500000000     0.098333333333    -0.0293309  
C9       C      0.527150000000     0.862350000000     0.032066666667     0.559173   
H9       H      0.546405000000     0.859233000000     0.046433000000    -0.148566   
Al01     Al     0.622960000000     0.843130000000     0.306600000000     5.95217    
O002     O      0.624650000000     0.870295000000     0.262100000000    -2.15147    
O003     O      0.666750000000     0.834400000000     0.301933333333    -1.42374    
O006     O      0.579150000000     0.848150000000     0.314466666667    -1.4448     
O1       O      0.614150000000     0.809300000000     0.266966666667    -1.37516    
O2       O      0.619700000000     0.810800000000     0.014600000000    -1.43334    
C2       C      0.633600000000     0.807500000000     0.048166666667     1.17692    
C4       C      0.595900000000     0.809000000000     0.237233333333     1.09097    
C1       C      0.583950000000     0.778550000000     0.220633333333    -0.438947   
C6       C      0.632300000000     0.778150000000     0.072000000000    -0.642893   
C8       C      0.559900000000     0.777650000000     0.192300000000     0.286171   
H8       H      0.551500000000     0.800000000000     0.181666666667    -0.0301703  
C9       C      0.637650000000     0.777150000000     0.115400000000     0.511179   
H9       H      0.640767000000     0.796405000000     0.129766333333    -0.13529    
Al01     Al     0.656870000000     0.872960000000     0.056600000000     5.94314    
O002     O      0.629705000000     0.874650000000     0.012100000000    -2.13364    
O003     O      0.665600000000     0.916750000000     0.051933333333    -1.42035    
O006     O      0.651850000000     0.829150000000     0.064466666667    -1.43946    
O1       O      0.690700000000     0.864150000000     0.016966666667    -1.35827    
O2       O      0.689200000000     0.869700000000     0.097933333333    -1.44852    
C2       C      0.692500000000     0.883600000000     0.131500000000     1.18195    
C4       C      0.691000000000     0.845900000000     0.320566666667     1.09098    
C1       C      0.721450000000     0.833950000000     0.303966666667    -0.438946   
C6       C      0.721850000000     0.882300000000     0.155333333333    -0.648293   
C8       C      0.722350000000     0.809900000000     0.275633333333     0.286063   
H8       H      0.700000000000     0.801500000000     0.265000000000    -0.0302775  
C9       C      0.722850000000     0.887650000000     0.198733333333     0.514711   
H9       H      0.703595000000     0.890767000000     0.213099666667    -0.136709   
Al01     Al     0.627040000000     0.906870000000     0.139933333333     5.95088    
O002     O      0.625350000000     0.879705000000     0.095433333333    -2.1491     
O003     O      0.583250000000     0.915600000000     0.135266666667    -1.42303    
O006     O      0.670850000000     0.901850000000     0.147800000000    -1.44423    
O1       O      0.635850000000     0.940700000000     0.100300000000    -1.37338    
O2       O      0.630300000000     0.939200000000     0.181266666667    -1.45025    
C2       C      0.616400000000     0.942500000000     0.214833333333     1.1827     
C4       C      0.654100000000     0.941000000000     0.070566666667     1.0883     
C1       C      0.666050000000     0.971450000000     0.053966666667    -0.430245   
C6       C      0.617700000000     0.971850000000     0.238666666667    -0.648716   
C8       C      0.690100000000     0.972350000000     0.025633333333     0.273421   
H8       H      0.698500000000     0.950000000000     0.015000000000    -0.0235266  
C9       C      0.612350000000     0.972850000000     0.282066666667     0.517222   
H9       H      0.609233000000     0.953595000000     0.296433000000    -0.137451   
Al01     Al     0.656870000000     0.627040000000     0.056600000000     5.94308    
O002     O      0.629705000000     0.625350000000     0.012100000000    -2.13363    
O003     O      0.665600000000     0.583250000000     0.051933333333    -1.42039    
O006     O      0.651850000000     0.670850000000     0.064466666667    -1.43945    
O1       O      0.690700000000     0.635850000000     0.016966666667    -1.35826    
O2       O      0.689200000000     0.630300000000     0.097933333333    -1.44852    
C2       C      0.692500000000     0.616400000000     0.131500000000     1.18195    
C4       C      0.691000000000     0.654100000000     0.320566666667     1.09097    
C1       C      0.721450000000     0.666050000000     0.303966666667    -0.438944   
C5       C      0.750000000000     0.622300000000     0.134833333333     0.575076   
C7       C      0.750000000000     0.611450000000     0.221033333333    -0.576612   
H7       H      0.750000000000     0.610297500000     0.250599000000     0.225977   
C3       C      0.750000000000     0.654450000000     0.321966666667     0.279329   
C6       C      0.721850000000     0.617700000000     0.155333333333    -0.648336   
C8       C      0.722350000000     0.690100000000     0.275633333333     0.286061   
H8       H      0.700000000000     0.698500000000     0.265000000000    -0.0302766  
C9       C      0.722850000000     0.612350000000     0.198733333333     0.514694   
H9       H      0.703595000000     0.609233000000     0.213099666667    -0.136748   
C13      C      0.750000000000     0.701050000000     0.262166666667    -0.328955   
H13      H      0.750000000000     0.718000000000     0.240333333333     0.119303   
H5       H      0.750000000000     0.626000000000     0.106333333333    -0.145157   
Al01     Al     0.872960000000     0.906870000000     0.139933333333     5.95093    
O002     O      0.874650000000     0.879705000000     0.095433333333    -2.14908    
O003     O      0.916750000000     0.915600000000     0.135266666667    -1.42298    
O006     O      0.829150000000     0.901850000000     0.147800000000    -1.44424    
O1       O      0.864150000000     0.940700000000     0.100300000000    -1.37336    
O2       O      0.869700000000     0.939200000000     0.181266666667    -1.45025    
C2       C      0.883600000000     0.942500000000     0.214833333333     1.1827     
C4       C      0.845900000000     0.941000000000     0.070566666667     1.08831    
C1       C      0.833950000000     0.971450000000     0.053966666667    -0.430253   
C5       C      0.877700000000     0.500000000000     0.218166666667     0.57609    
C7       C      0.888550000000     0.500000000000     0.304366666667    -0.577398   
H7       H      0.889702500000     0.500000000000     0.000599000000     0.25076    
C3       C      0.845550000000     0.500000000000     0.071966666667     0.275112   
C6       C      0.882300000000     0.971850000000     0.238666666667    -0.648673   
C8       C      0.809900000000     0.972350000000     0.025633333333     0.273429   
H8       H      0.801500000000     0.950000000000     0.015000000000    -0.023531   
C9       C      0.887650000000     0.972850000000     0.282066666667     0.517235   
H9       H      0.890767000000     0.953595000000     0.296433000000    -0.137411   
C13      C      0.798950000000     0.500000000000     0.012166666667    -0.29725    
H13      H      0.782000000000     0.500000000000     0.323666666667     0.119093   
H5       H      0.874000000000     0.500000000000     0.189666666667    -0.146443   
Al01     Al     0.593130000000     0.622960000000     0.223266666667     5.952      
O002     O      0.620295000000     0.624650000000     0.178766666667    -2.1512     
O003     O      0.584400000000     0.666750000000     0.218600000000    -1.42367    
O006     O      0.598150000000     0.579150000000     0.231133333333    -1.44475    
O1       O      0.559300000000     0.614150000000     0.183633333333    -1.37508    
O2       O      0.560800000000     0.619700000000     0.264600000000    -1.4507     
C2       C      0.557500000000     0.633600000000     0.298166666667     1.18291    
C4       C      0.559000000000     0.595900000000     0.153900000000     1.09097    
C1       C      0.528550000000     0.583950000000     0.137300000000    -0.438827   
C5       C      0.500000000000     0.627700000000     0.301500000000     0.576196   
C7       C      0.500000000000     0.638550000000     0.054366666667    -0.615184   
H7       H      0.500000000000     0.639702500000     0.083932333333     0.239783   
C3       C      0.500000000000     0.595550000000     0.155300000000     0.279108   
C6       C      0.528150000000     0.632300000000     0.322000000000    -0.649562   
C8       C      0.527650000000     0.559900000000     0.108966666667     0.286592   
H8       H      0.550000000000     0.551500000000     0.098333333333    -0.0294615  
C9       C      0.527150000000     0.637650000000     0.032066666667     0.559229   
H9       H      0.546405000000     0.640767000000     0.046433000000    -0.14859    
C13      C      0.500000000000     0.548950000000     0.095500000000    -0.328677   
H13      H      0.500000000000     0.532000000000     0.073666666667     0.12086    
H5       H      0.500000000000     0.624000000000     0.273000000000    -0.146566   
Al01     Al     0.877040000000     0.843130000000     0.306600000000     5.9522     
O002     O      0.875350000000     0.870295000000     0.262100000000    -2.15147    
O003     O      0.833250000000     0.834400000000     0.301933333333    -1.42375    
O006     O      0.920850000000     0.848150000000     0.314466666667    -1.44473    
O1       O      0.885850000000     0.809300000000     0.266966666667    -1.37516    
O2       O      0.880300000000     0.810800000000     0.014600000000    -1.43334    
C2       C      0.866400000000     0.807500000000     0.048166666667     1.17695    
C4       C      0.904100000000     0.809000000000     0.237233333333     1.09099    
C1       C      0.916050000000     0.778550000000     0.220633333333    -0.438922   
C5       C      0.872300000000     0.750000000000     0.051500000000     0.570846   
C7       C      0.861450000000     0.750000000000     0.137700000000    -0.572575   
H7       H      0.860297500000     0.750000000000     0.167265666667     0.224757   
C3       C      0.904450000000     0.750000000000     0.238633333333     0.279425   
C6       C      0.867700000000     0.778150000000     0.072000000000    -0.642876   
C8       C      0.940100000000     0.777650000000     0.192300000000     0.286255   
H8       H      0.948500000000     0.800000000000     0.181666666667    -0.030039   
C9       C      0.862350000000     0.777150000000     0.115400000000     0.511188   
H9       H      0.859233000000     0.796405000000     0.129766333333    -0.135286   
C13      C      0.951050000000     0.750000000000     0.178833333333    -0.32893    
H13      H      0.968000000000     0.750000000000     0.157000000000     0.119859   
H5       H      0.876000000000     0.750000000000     0.023000000000    -0.14146    
Al01     Al     0.843130000000     0.627040000000     0.056600000000     5.94311    
O002     O      0.870295000000     0.625350000000     0.012100000000    -2.13366    
O003     O      0.834400000000     0.583250000000     0.051933333333    -1.4204     
O006     O      0.848150000000     0.670850000000     0.064466666667    -1.43945    
O1       O      0.809300000000     0.635850000000     0.016966666667    -1.35828    
O2       O      0.810800000000     0.630300000000     0.097933333333    -1.44852    
C2       C      0.807500000000     0.616400000000     0.131500000000     1.18195    
C4       C      0.809000000000     0.654100000000     0.320566666667     1.09097    
C1       C      0.778550000000     0.666050000000     0.303966666667    -0.438945   
C6       C      0.778150000000     0.617700000000     0.155333333333    -0.648338   
C8       C      0.777650000000     0.690100000000     0.275633333333     0.286061   
H8       H      0.800000000000     0.698500000000     0.265000000000    -0.0302773  
C9       C      0.777150000000     0.612350000000     0.198733333333     0.514695   
H9       H      0.796405000000     0.609233000000     0.213099666667    -0.136749   
Al01     Al     0.872960000000     0.593130000000     0.139933333333     5.95096    
O002     O      0.874650000000     0.620295000000     0.095433333333    -2.14908    
O003     O      0.916750000000     0.584400000000     0.135266666667    -1.42305    
O006     O      0.829150000000     0.598150000000     0.147800000000    -1.4443     
O1       O      0.864150000000     0.559300000000     0.100300000000    -1.37362    
O2       O      0.869700000000     0.560800000000     0.181266666667    -1.4505     
C2       C      0.883600000000     0.557500000000     0.214833333333     1.18282    
C4       C      0.845900000000     0.559000000000     0.070566666667     1.08838    
C1       C      0.833950000000     0.528550000000     0.053966666667    -0.430927   
C6       C      0.882300000000     0.528150000000     0.238666666667    -0.649431   
C8       C      0.809900000000     0.527650000000     0.025633333333     0.271818   
H8       H      0.801500000000     0.550000000000     0.015000000000    -0.0232629  
C9       C      0.887650000000     0.527150000000     0.282066666667     0.51549    
H9       H      0.890767000000     0.546405000000     0.296433000000    -0.136988   
Al01     Al     0.906870000000     0.622960000000     0.223266666667     5.95197    
O002     O      0.879705000000     0.624650000000     0.178766666667    -2.1512     
O003     O      0.915600000000     0.666750000000     0.218600000000    -1.4236     
O006     O      0.901850000000     0.579150000000     0.231133333333    -1.4447     
O1       O      0.940700000000     0.614150000000     0.183633333333    -1.37482    
O2       O      0.939200000000     0.619700000000     0.264600000000    -1.45045    
C2       C      0.942500000000     0.633600000000     0.298166666667     1.1828     
C4       C      0.941000000000     0.595900000000     0.153900000000     1.09088    
C1       C      0.971450000000     0.583950000000     0.137300000000    -0.438128   
C6       C      0.971850000000     0.632300000000     0.322000000000    -0.648805   
C8       C      0.972350000000     0.559900000000     0.108966666667     0.288144   
H8       H      0.950000000000     0.551500000000     0.098333333333    -0.0297094  
C9       C      0.972850000000     0.637650000000     0.032066666667     0.560832   
H9       H      0.953595000000     0.640767000000     0.046433000000    -0.148973   
Al01     Al     0.877040000000     0.656870000000     0.306600000000     5.95218    
O002     O      0.875350000000     0.629705000000     0.262100000000    -2.15148    
O003     O      0.833250000000     0.665600000000     0.301933333333    -1.42375    
O006     O      0.920850000000     0.651850000000     0.314466666667    -1.44473    
O1       O      0.885850000000     0.690700000000     0.266966666667    -1.37515    
O2       O      0.880300000000     0.689200000000     0.014600000000    -1.43332    
C2       C      0.866400000000     0.692500000000     0.048166666667     1.17694    
C4       C      0.904100000000     0.691000000000     0.237233333333     1.09099    
C1       C      0.916050000000     0.721450000000     0.220633333333    -0.438921   
C6       C      0.867700000000     0.721850000000     0.072000000000    -0.642872   
C8       C      0.940100000000     0.722350000000     0.192300000000     0.286254   
H8       H      0.948500000000     0.700000000000     0.181666666667    -0.0300381  
C9       C      0.862350000000     0.722850000000     0.115400000000     0.511187   
H9       H      0.859233000000     0.703595000000     0.129766333333    -0.135284   
Al01     Al     0.906870000000     0.877040000000     0.556600000000     5.95236    
O002     O      0.879705000000     0.875350000000     0.512100000000    -2.15152    
O003     O      0.915600000000     0.833250000000     0.551933333333    -1.4237     
O006     O      0.901850000000     0.920850000000     0.564466666667    -1.44467    
O1       O      0.940700000000     0.885850000000     0.516966666667    -1.37491    
O2       O      0.939200000000     0.880300000000     0.597933333333    -1.45043    
C2       C      0.942500000000     0.866400000000     0.631500000000     1.18288    
C4       C      0.941000000000     0.904100000000     0.487233333333     1.09094    
C1       C      0.971450000000     0.916050000000     0.470633333333    -0.4382     
C5       C      0.500000000000     0.872300000000     0.634833333333     0.57625    
C7       C      0.500000000000     0.861450000000     0.387700000000    -0.5775     
H7       H      0.500000000000     0.860297500000     0.417265666667     0.226289   
C3       C      0.500000000000     0.904450000000     0.488633333333     0.279402   
C6       C      0.971850000000     0.867700000000     0.655333333333    -0.648727   
C8       C      0.972350000000     0.940100000000     0.442300000000     0.287653   
H8       H      0.950000000000     0.948500000000     0.431666666667    -0.0304342  
C9       C      0.972850000000     0.862350000000     0.365400000000     0.5173     
H9       H      0.953595000000     0.859233000000     0.379766333333    -0.137458   
C13      C      0.500000000000     0.951050000000     0.428833333333    -0.32888    
H13      H      0.500000000000     0.968000000000     0.407000000000     0.119328   
H5       H      0.500000000000     0.876000000000     0.606333333333    -0.146508   
Al01     Al     0.622960000000     0.656870000000     0.639933333333     5.95243    
O002     O      0.624650000000     0.629705000000     0.595433333333    -2.15153    
O003     O      0.666750000000     0.665600000000     0.635266666667    -1.42376    
O006     O      0.579150000000     0.651850000000     0.647800000000    -1.4448     
O1       O      0.614150000000     0.690700000000     0.600300000000    -1.37518    
O2       O      0.619700000000     0.689200000000     0.347933333333    -1.45071    
C2       C      0.633600000000     0.692500000000     0.381500000000     1.18293    
C4       C      0.595900000000     0.691000000000     0.570566666667     1.09102    
C1       C      0.583950000000     0.721450000000     0.553966666667    -0.43892    
C5       C      0.627700000000     0.750000000000     0.384833333333     0.576209   
C7       C      0.638550000000     0.750000000000     0.471033333333    -0.577508   
H7       H      0.639702500000     0.750000000000     0.500599000000     0.226304   
C3       C      0.595550000000     0.750000000000     0.571966666667     0.279378   
C6       C      0.632300000000     0.721850000000     0.405333333333    -0.649555   
C8       C      0.559900000000     0.722350000000     0.525633333333     0.286028   
H8       H      0.551500000000     0.700000000000     0.515000000000    -0.0303111  
C9       C      0.637650000000     0.722850000000     0.448733333333     0.515568   
H9       H      0.640767000000     0.703595000000     0.463099666667    -0.137035   
C13      C      0.548950000000     0.750000000000     0.512166666667    -0.32892    
H13      H      0.532000000000     0.750000000000     0.490333333333     0.119115   
H5       H      0.624000000000     0.750000000000     0.356333333333    -0.146559   
Al01     Al     0.843130000000     0.872960000000     0.389933333333     5.95229    
O002     O      0.870295000000     0.874650000000     0.345433333333    -2.15148    
O003     O      0.834400000000     0.916750000000     0.385266666667    -1.42371    
O006     O      0.848150000000     0.829150000000     0.397800000000    -1.44481    
O1       O      0.809300000000     0.864150000000     0.350300000000    -1.37518    
O2       O      0.810800000000     0.869700000000     0.431266666667    -1.45072    
C2       C      0.807500000000     0.883600000000     0.464833333333     1.18296    
C4       C      0.809000000000     0.845900000000     0.653900000000     1.09105    
C1       C      0.778550000000     0.833950000000     0.637300000000    -0.438919   
C5       C      0.750000000000     0.877700000000     0.468166666667     0.576222   
C7       C      0.750000000000     0.888550000000     0.554366666667    -0.577443   
H7       H      0.750000000000     0.889702500000     0.583932333333     0.226353   
C3       C      0.750000000000     0.845550000000     0.655300000000     0.279424   
C6       C      0.778150000000     0.882300000000     0.488666666667    -0.649502   
C8       C      0.777650000000     0.809900000000     0.608966666667     0.286045   
H8       H      0.800000000000     0.801500000000     0.598333333333    -0.0303029  
C9       C      0.777150000000     0.887650000000     0.532066666667     0.515596   
H9       H      0.796405000000     0.890767000000     0.546433000000    -0.136988   
C13      C      0.750000000000     0.798950000000     0.595500000000    -0.328918   
H13      H      0.750000000000     0.782000000000     0.573666666667     0.11913    
H5       H      0.750000000000     0.874000000000     0.439666666667    -0.146532   
Al01     Al     0.627040000000     0.593130000000     0.473266666667     5.95229    
O002     O      0.625350000000     0.620295000000     0.428766666667    -2.15151    
O003     O      0.583250000000     0.584400000000     0.468600000000    -1.42376    
O006     O      0.670850000000     0.598150000000     0.481133333333    -1.4448     
O1       O      0.635850000000     0.559300000000     0.433633333333    -1.37518    
O2       O      0.630300000000     0.560800000000     0.514600000000    -1.45071    
C2       C      0.616400000000     0.557500000000     0.548166666667     1.18297    
C4       C      0.654100000000     0.559000000000     0.403900000000     1.09098    
C1       C      0.666050000000     0.528550000000     0.387300000000    -0.438929   
C5       C      0.622300000000     0.500000000000     0.551500000000     0.576232   
C7       C      0.611450000000     0.500000000000     0.637700000000    -0.577483   
H7       H      0.610297500000     0.500000000000     0.333932333333     0.22626    
C3       C      0.654450000000     0.500000000000     0.405300000000     0.279333   
C6       C      0.617700000000     0.528150000000     0.572000000000    -0.64953    
C8       C      0.690100000000     0.527650000000     0.358966666667     0.285999   
H8       H      0.698500000000     0.550000000000     0.348333333333    -0.0303302  
C9       C      0.612350000000     0.527150000000     0.615400000000     0.515593   
H9       H      0.609233000000     0.546405000000     0.629766333333    -0.137013   
C13      C      0.701050000000     0.500000000000     0.345500000000    -0.328932   
H13      H      0.718000000000     0.500000000000     0.657000000000     0.11914    
H5       H      0.626000000000     0.500000000000     0.523000000000    -0.146543   
Al01     Al     0.593130000000     0.877040000000     0.556600000000     5.9524     
O002     O      0.620295000000     0.875350000000     0.512100000000    -2.15153    
O003     O      0.584400000000     0.833250000000     0.551933333333    -1.42377    
O006     O      0.598150000000     0.920850000000     0.564466666667    -1.44473    
O1       O      0.559300000000     0.885850000000     0.516966666667    -1.37518    
O2       O      0.560800000000     0.880300000000     0.597933333333    -1.45069    
C2       C      0.557500000000     0.866400000000     0.631500000000     1.18299    
C4       C      0.559000000000     0.904100000000     0.487233333333     1.09102    
C1       C      0.528550000000     0.916050000000     0.470633333333    -0.4389     
C6       C      0.528150000000     0.867700000000     0.655333333333    -0.649485   
C8       C      0.527650000000     0.940100000000     0.442300000000     0.286099   
H8       H      0.550000000000     0.948500000000     0.431666666667    -0.0301883  
C9       C      0.527150000000     0.862350000000     0.365400000000     0.515555   
H9       H      0.546405000000     0.859233000000     0.379766333333    -0.137035   
Al01     Al     0.622960000000     0.843130000000     0.639933333333     5.95245    
O002     O      0.624650000000     0.870295000000     0.595433333333    -2.15153    
O003     O      0.666750000000     0.834400000000     0.635266666667    -1.42377    
O006     O      0.579150000000     0.848150000000     0.647800000000    -1.4448     
O1       O      0.614150000000     0.809300000000     0.600300000000    -1.37519    
O2       O      0.619700000000     0.810800000000     0.347933333333    -1.45072    
C2       C      0.633600000000     0.807500000000     0.381500000000     1.18294    
C4       C      0.595900000000     0.809000000000     0.570566666667     1.09102    
C1       C      0.583950000000     0.778550000000     0.553966666667    -0.438922   
C6       C      0.632300000000     0.778150000000     0.405333333333    -0.649557   
C8       C      0.559900000000     0.777650000000     0.525633333333     0.286029   
H8       H      0.551500000000     0.800000000000     0.515000000000    -0.0303118  
C9       C      0.637650000000     0.777150000000     0.448733333333     0.515569   
H9       H      0.640767000000     0.796405000000     0.463099666667    -0.137036   
Al01     Al     0.656870000000     0.872960000000     0.389933333333     5.95227    
O002     O      0.629705000000     0.874650000000     0.345433333333    -2.15149    
O003     O      0.665600000000     0.916750000000     0.385266666667    -1.42371    
O006     O      0.651850000000     0.829150000000     0.397800000000    -1.44481    
O1       O      0.690700000000     0.864150000000     0.350300000000    -1.37517    
O2       O      0.689200000000     0.869700000000     0.431266666667    -1.45071    
C2       C      0.692500000000     0.883600000000     0.464833333333     1.18296    
C4       C      0.691000000000     0.845900000000     0.653900000000     1.09105    
C1       C      0.721450000000     0.833950000000     0.637300000000    -0.438918   
C6       C      0.721850000000     0.882300000000     0.488666666667    -0.6495     
C8       C      0.722350000000     0.809900000000     0.608966666667     0.286044   
H8       H      0.700000000000     0.801500000000     0.598333333333    -0.0303022  
C9       C      0.722850000000     0.887650000000     0.532066666667     0.515595   
H9       H      0.703595000000     0.890767000000     0.546433000000    -0.136986   
Al01     Al     0.627040000000     0.906870000000     0.473266666667     5.95225    
O002     O      0.625350000000     0.879705000000     0.428766666667    -2.15151    
O003     O      0.583250000000     0.915600000000     0.468600000000    -1.42369    
O006     O      0.670850000000     0.901850000000     0.481133333333    -1.44474    
O1       O      0.635850000000     0.940700000000     0.433633333333    -1.37492    
O2       O      0.630300000000     0.939200000000     0.514600000000    -1.45046    
C2       C      0.616400000000     0.942500000000     0.548166666667     1.18285    
C4       C      0.654100000000     0.941000000000     0.403900000000     1.0909     
C1       C      0.666050000000     0.971450000000     0.387300000000    -0.438229   
C6       C      0.617700000000     0.971850000000     0.572000000000    -0.648771   
C8       C      0.690100000000     0.972350000000     0.358966666667     0.287558   
H8       H      0.698500000000     0.950000000000     0.348333333333    -0.0305767  
C9       C      0.612350000000     0.972850000000     0.615400000000     0.517339   
H9       H      0.609233000000     0.953595000000     0.629766333333    -0.137435   
Al01     Al     0.656870000000     0.627040000000     0.389933333333     5.95222    
O002     O      0.629705000000     0.625350000000     0.345433333333    -2.1515     
O003     O      0.665600000000     0.583250000000     0.385266666667    -1.42376    
O006     O      0.651850000000     0.670850000000     0.397800000000    -1.4448     
O1       O      0.690700000000     0.635850000000     0.350300000000    -1.37518    
O2       O      0.689200000000     0.630300000000     0.431266666667    -1.45071    
C2       C      0.692500000000     0.616400000000     0.464833333333     1.18295    
C4       C      0.691000000000     0.654100000000     0.653900000000     1.09104    
C1       C      0.721450000000     0.666050000000     0.637300000000    -0.438916   
C5       C      0.750000000000     0.622300000000     0.468166666667     0.576221   
C7       C      0.750000000000     0.611450000000     0.554366666667    -0.577497   
H7       H      0.750000000000     0.610297500000     0.583932333333     0.226313   
C3       C      0.750000000000     0.654450000000     0.655300000000     0.279394   
C6       C      0.721850000000     0.617700000000     0.488666666667    -0.649545   
C8       C      0.722350000000     0.690100000000     0.608966666667     0.286042   
H8       H      0.700000000000     0.698500000000     0.598333333333    -0.0303012  
C9       C      0.722850000000     0.612350000000     0.532066666667     0.515579   
H9       H      0.703595000000     0.609233000000     0.546433000000    -0.137025   
C13      C      0.750000000000     0.701050000000     0.595500000000    -0.328914   
H13      H      0.750000000000     0.718000000000     0.573666666667     0.119129   
H5       H      0.750000000000     0.626000000000     0.439666666667    -0.146555   
Al01     Al     0.872960000000     0.906870000000     0.473266666667     5.9523     
O002     O      0.874650000000     0.879705000000     0.428766666667    -2.15149    
O003     O      0.916750000000     0.915600000000     0.468600000000    -1.42364    
O006     O      0.829150000000     0.901850000000     0.481133333333    -1.44475    
O1       O      0.864150000000     0.940700000000     0.433633333333    -1.37491    
O2       O      0.869700000000     0.939200000000     0.514600000000    -1.45046    
C2       C      0.883600000000     0.942500000000     0.548166666667     1.18286    
C4       C      0.845900000000     0.941000000000     0.403900000000     1.09091    
C1       C      0.833950000000     0.971450000000     0.387300000000    -0.438232   
C5       C      0.877700000000     0.500000000000     0.551500000000     0.576232   
C7       C      0.888550000000     0.500000000000     0.637700000000    -0.577429   
H7       H      0.889702500000     0.500000000000     0.333932333333     0.2263     
C3       C      0.845550000000     0.500000000000     0.405300000000     0.279363   
C6       C      0.882300000000     0.971850000000     0.572000000000    -0.648727   
C8       C      0.809900000000     0.972350000000     0.358966666667     0.28756    
H8       H      0.801500000000     0.950000000000     0.348333333333    -0.0305775  
C9       C      0.887650000000     0.972850000000     0.615400000000     0.517352   
H9       H      0.890767000000     0.953595000000     0.629766333333    -0.137395   
C13      C      0.798950000000     0.500000000000     0.345500000000    -0.328936   
H13      H      0.782000000000     0.500000000000     0.657000000000     0.11914    
H5       H      0.874000000000     0.500000000000     0.523000000000    -0.14652    
Al01     Al     0.593130000000     0.622960000000     0.556600000000     5.95236    
O002     O      0.620295000000     0.624650000000     0.512100000000    -2.15152    
O003     O      0.584400000000     0.666750000000     0.551933333333    -1.42376    
O006     O      0.598150000000     0.579150000000     0.564466666667    -1.4448     
O1       O      0.559300000000     0.614150000000     0.516966666667    -1.37518    
O2       O      0.560800000000     0.619700000000     0.597933333333    -1.45071    
C2       C      0.557500000000     0.633600000000     0.631500000000     1.18298    
C4       C      0.559000000000     0.595900000000     0.487233333333     1.091      
C1       C      0.528550000000     0.583950000000     0.470633333333    -0.438924   
C5       C      0.500000000000     0.627700000000     0.634833333333     0.57624    
C7       C      0.500000000000     0.638550000000     0.387700000000    -0.577514   
H7       H      0.500000000000     0.639702500000     0.417265666667     0.226294   
C3       C      0.500000000000     0.595550000000     0.488633333333     0.279357   
C6       C      0.528150000000     0.632300000000     0.655333333333    -0.649513   
C8       C      0.527650000000     0.559900000000     0.442300000000     0.286014   
H8       H      0.550000000000     0.551500000000     0.431666666667    -0.030321   
C9       C      0.527150000000     0.637650000000     0.365400000000     0.515554   
H9       H      0.546405000000     0.640767000000     0.379766333333    -0.137043   
C13      C      0.500000000000     0.548950000000     0.428833333333    -0.328925   
H13      H      0.500000000000     0.532000000000     0.407000000000     0.119102   
H5       H      0.500000000000     0.624000000000     0.606333333333    -0.146531   
Al01     Al     0.877040000000     0.843130000000     0.639933333333     5.95248    
O002     O      0.875350000000     0.870295000000     0.595433333333    -2.15153    
O003     O      0.833250000000     0.834400000000     0.635266666667    -1.42377    
O006     O      0.920850000000     0.848150000000     0.647800000000    -1.44473    
O1       O      0.885850000000     0.809300000000     0.600300000000    -1.37518    
O2       O      0.880300000000     0.810800000000     0.347933333333    -1.45069    
C2       C      0.866400000000     0.807500000000     0.381500000000     1.18295    
C4       C      0.904100000000     0.809000000000     0.570566666667     1.09104    
C1       C      0.916050000000     0.778550000000     0.553966666667    -0.438897   
C5       C      0.872300000000     0.750000000000     0.384833333333     0.576219   
C7       C      0.861450000000     0.750000000000     0.471033333333    -0.577494   
H7       H      0.860297500000     0.750000000000     0.500599000000     0.226299   
C3       C      0.904450000000     0.750000000000     0.571966666667     0.279423   
C6       C      0.867700000000     0.778150000000     0.405333333333    -0.64953    
C8       C      0.940100000000     0.777650000000     0.525633333333     0.286114   
H8       H      0.948500000000     0.800000000000     0.515000000000    -0.0301792  
C9       C      0.862350000000     0.777150000000     0.448733333333     0.51557    
H9       H      0.859233000000     0.796405000000     0.463099666667    -0.137029   
C13      C      0.951050000000     0.750000000000     0.512166666667    -0.328875   
H13      H      0.968000000000     0.750000000000     0.490333333333     0.119341   
H5       H      0.876000000000     0.750000000000     0.356333333333    -0.146536   
Al01     Al     0.843130000000     0.627040000000     0.389933333333     5.95224    
O002     O      0.870295000000     0.625350000000     0.345433333333    -2.1515     
O003     O      0.834400000000     0.583250000000     0.385266666667    -1.42376    
O006     O      0.848150000000     0.670850000000     0.397800000000    -1.4448     
O1       O      0.809300000000     0.635850000000     0.350300000000    -1.37519    
O2       O      0.810800000000     0.630300000000     0.431266666667    -1.45072    
C2       C      0.807500000000     0.616400000000     0.464833333333     1.18295    
C4       C      0.809000000000     0.654100000000     0.653900000000     1.09104    
C1       C      0.778550000000     0.666050000000     0.637300000000    -0.438917   
C6       C      0.778150000000     0.617700000000     0.488666666667    -0.649547   
C8       C      0.777650000000     0.690100000000     0.608966666667     0.286042   
H8       H      0.800000000000     0.698500000000     0.598333333333    -0.030302   
C9       C      0.777150000000     0.612350000000     0.532066666667     0.51558    
H9       H      0.796405000000     0.609233000000     0.546433000000    -0.137027   
Al01     Al     0.872960000000     0.593130000000     0.473266666667     5.95234    
O002     O      0.874650000000     0.620295000000     0.428766666667    -2.1515     
O003     O      0.916750000000     0.584400000000     0.468600000000    -1.42371    
O006     O      0.829150000000     0.598150000000     0.481133333333    -1.44481    
O1       O      0.864150000000     0.559300000000     0.433633333333    -1.37517    
O2       O      0.869700000000     0.560800000000     0.514600000000    -1.45071    
C2       C      0.883600000000     0.557500000000     0.548166666667     1.18297    
C4       C      0.845900000000     0.559000000000     0.403900000000     1.09099    
C1       C      0.833950000000     0.528550000000     0.387300000000    -0.438932   
C6       C      0.882300000000     0.528150000000     0.572000000000    -0.649485   
C8       C      0.809900000000     0.527650000000     0.358966666667     0.286001   
H8       H      0.801500000000     0.550000000000     0.348333333333    -0.0303311  
C9       C      0.887650000000     0.527150000000     0.615400000000     0.515609   
H9       H      0.890767000000     0.546405000000     0.629766333333    -0.136974   
Al01     Al     0.906870000000     0.622960000000     0.556600000000     5.95232    
O002     O      0.879705000000     0.624650000000     0.512100000000    -2.15152    
O003     O      0.915600000000     0.666750000000     0.551933333333    -1.42369    
O006     O      0.901850000000     0.579150000000     0.564466666667    -1.44474    
O1       O      0.940700000000     0.614150000000     0.516966666667    -1.37492    
O2       O      0.939200000000     0.619700000000     0.597933333333    -1.45046    
C2       C      0.942500000000     0.633600000000     0.631500000000     1.18287    
C4       C      0.941000000000     0.595900000000     0.487233333333     1.09092    
C1       C      0.971450000000     0.583950000000     0.470633333333    -0.438223   
C6       C      0.971850000000     0.632300000000     0.655333333333    -0.648754   
C8       C      0.972350000000     0.559900000000     0.442300000000     0.287572   
H8       H      0.950000000000     0.551500000000     0.431666666667    -0.0305673  
C9       C      0.972850000000     0.637650000000     0.365400000000     0.517301   
H9       H      0.953595000000     0.640767000000     0.379766333333    -0.137466   
Al01     Al     0.877040000000     0.656870000000     0.639933333333     5.95246    
O002     O      0.875350000000     0.629705000000     0.595433333333    -2.15154    
O003     O      0.833250000000     0.665600000000     0.635266666667    -1.42377    
O006     O      0.920850000000     0.651850000000     0.647800000000    -1.44473    
O1       O      0.885850000000     0.690700000000     0.600300000000    -1.37518    
O2       O      0.880300000000     0.689200000000     0.347933333333    -1.45069    
C2       C      0.866400000000     0.692500000000     0.381500000000     1.18294    
C4       C      0.904100000000     0.691000000000     0.570566666667     1.09104    
C1       C      0.916050000000     0.721450000000     0.553966666667    -0.438896   
C6       C      0.867700000000     0.721850000000     0.405333333333    -0.649528   
C8       C      0.940100000000     0.722350000000     0.525633333333     0.286113   
H8       H      0.948500000000     0.700000000000     0.515000000000    -0.0301784  
C9       C      0.862350000000     0.722850000000     0.448733333333     0.515569   
H9       H      0.859233000000     0.703595000000     0.463099666667    -0.137027   
Al01     Al     0.906870000000     0.877040000000     0.889933333333     5.95178    
O002     O      0.879705000000     0.875350000000     0.845433333333    -2.15165    
O003     O      0.915600000000     0.833250000000     0.885266666667    -1.42229    
O006     O      0.901850000000     0.920850000000     0.897800000000    -1.44667    
O1       O      0.940700000000     0.885850000000     0.850300000000    -1.37462    
O2       O      0.939200000000     0.880300000000     0.931266666667    -1.45291    
C2       C      0.942500000000     0.866400000000     0.964833333333     1.191      
C4       C      0.941000000000     0.904100000000     0.820566666667     1.09087    
C1       C      0.971450000000     0.916050000000     0.803966666667    -0.438187   
C5       C      0.500000000000     0.872300000000     0.968166666667     0.60383    
C7       C      0.500000000000     0.861450000000     0.721033333333    -0.577448   
H7       H      0.500000000000     0.860297500000     0.750599000000     0.226334   
C3       C      0.500000000000     0.904450000000     0.821966666667     0.279434   
C6       C      0.971850000000     0.867700000000     0.988666666667    -0.683544   
C8       C      0.972350000000     0.940100000000     0.775633333333     0.287625   
H8       H      0.950000000000     0.948500000000     0.765000000000    -0.0303851  
C9       C      0.972850000000     0.862350000000     0.698733333333     0.51735    
H9       H      0.953595000000     0.859233000000     0.713099666667    -0.137414   
C13      C      0.500000000000     0.951050000000     0.762166666667    -0.328864   
H13      H      0.500000000000     0.968000000000     0.740333333333     0.119372   
H5       H      0.500000000000     0.876000000000     0.939666666667    -0.156164   
Al01     Al     0.622960000000     0.656870000000     0.973266666667     5.898      
O002     O      0.624650000000     0.629705000000     0.928766666667    -2.14388    
O003     O      0.666750000000     0.665600000000     0.968600000000    -1.41329    
O006     O      0.579150000000     0.651850000000     0.981133333333    -1.44352    
O1       O      0.614150000000     0.690700000000     0.933633333333    -1.36865    
O2       O      0.619700000000     0.689200000000     0.681266666667    -1.4507     
C2       C      0.633600000000     0.692500000000     0.714833333333     1.18298    
C4       C      0.595900000000     0.691000000000     0.903900000000     1.08757    
C1       C      0.583950000000     0.721450000000     0.887300000000    -0.437535   
C5       C      0.627700000000     0.750000000000     0.718166666667     0.576208   
C7       C      0.638550000000     0.750000000000     0.804366666667    -0.577337   
H7       H      0.639702500000     0.750000000000     0.833932333333     0.226214   
C3       C      0.595550000000     0.750000000000     0.905300000000     0.276058   
C6       C      0.632300000000     0.721850000000     0.738666666667    -0.649452   
C8       C      0.559900000000     0.722350000000     0.858966666667     0.284722   
H8       H      0.551500000000     0.700000000000     0.848333333333    -0.0300052  
C9       C      0.637650000000     0.722850000000     0.782066666667     0.515531   
H9       H      0.640767000000     0.703595000000     0.796433000000    -0.136959   
C13      C      0.548950000000     0.750000000000     0.845500000000    -0.328006   
H13      H      0.532000000000     0.750000000000     0.823666666667     0.118824   
H5       H      0.624000000000     0.750000000000     0.689666666667    -0.146507   
Al01     Al     0.843130000000     0.872960000000     0.723266666667     5.95254    
O002     O      0.870295000000     0.874650000000     0.678766666667    -2.15151    
O003     O      0.834400000000     0.916750000000     0.718600000000    -1.42372    
O006     O      0.848150000000     0.829150000000     0.731133333333    -1.4448     
O1       O      0.809300000000     0.864150000000     0.683633333333    -1.37518    
O2       O      0.810800000000     0.869700000000     0.764600000000    -1.45072    
C2       C      0.807500000000     0.883600000000     0.798166666667     1.18302    
C4       C      0.809000000000     0.845900000000     0.987233333333     1.06837    
C1       C      0.778550000000     0.833950000000     0.970633333333    -0.430156   
C5       C      0.750000000000     0.877700000000     0.801500000000     0.576212   
C7       C      0.750000000000     0.888550000000     0.887700000000    -0.577431   
H7       H      0.750000000000     0.889702500000     0.917265666667     0.225034   
C3       C      0.750000000000     0.845550000000     0.988633333333     0.26738    
C6       C      0.778150000000     0.882300000000     0.822000000000    -0.649495   
C8       C      0.777650000000     0.809900000000     0.942300000000     0.278429   
H8       H      0.800000000000     0.801500000000     0.931666666667    -0.0290281  
C9       C      0.777150000000     0.887650000000     0.865400000000     0.515378   
H9       H      0.796405000000     0.890767000000     0.879766333333    -0.137476   
C13      C      0.750000000000     0.798950000000     0.928833333333    -0.322954   
H13      H      0.750000000000     0.782000000000     0.907000000000     0.117125   
H5       H      0.750000000000     0.874000000000     0.773000000000    -0.146493   
Al01     Al     0.627040000000     0.593130000000     0.806600000000     5.95282    
O002     O      0.625350000000     0.620295000000     0.762100000000    -2.15157    
O003     O      0.583250000000     0.584400000000     0.801933333333    -1.42375    
O006     O      0.670850000000     0.598150000000     0.814466666667    -1.445      
O1       O      0.635850000000     0.559300000000     0.766966666667    -1.37514    
O2       O      0.630300000000     0.560800000000     0.847933333333    -1.45254    
C2       C      0.616400000000     0.557500000000     0.881500000000     1.18849    
C4       C      0.654100000000     0.559000000000     0.737233333333     1.09103    
C1       C      0.666050000000     0.528550000000     0.720633333333    -0.438936   
C5       C      0.622300000000     0.500000000000     0.884833333333     0.590655   
C7       C      0.611450000000     0.500000000000     0.971033333333    -0.625482   
H7       H      0.610297500000     0.500000000000     0.667265666667     0.226334   
C3       C      0.654450000000     0.500000000000     0.738633333333     0.27944    
C6       C      0.617700000000     0.528150000000     0.905333333333    -0.665592   
C8       C      0.690100000000     0.527650000000     0.692300000000     0.286032   
H8       H      0.698500000000     0.550000000000     0.681666666667    -0.0303004  
C9       C      0.612350000000     0.527150000000     0.948733333333     0.542677   
H9       H      0.609233000000     0.546405000000     0.963099666667    -0.149447   
C13      C      0.701050000000     0.500000000000     0.678833333333    -0.328927   
H13      H      0.718000000000     0.500000000000     0.990333333333     0.101106   
H5       H      0.626000000000     0.500000000000     0.856333333333    -0.151507   
Al01     Al     0.593130000000     0.877040000000     0.889933333333     5.95182    
O002     O      0.620295000000     0.875350000000     0.845433333333    -2.15166    
O003     O      0.584400000000     0.833250000000     0.885266666667    -1.42236    
O006     O      0.598150000000     0.920850000000     0.897800000000    -1.44673    
O1       O      0.559300000000     0.885850000000     0.850300000000    -1.37489    
O2       O      0.560800000000     0.880300000000     0.931266666667    -1.45317    
C2       C      0.557500000000     0.866400000000     0.964833333333     1.19114    
C4       C      0.559000000000     0.904100000000     0.820566666667     1.09095    
C1       C      0.528550000000     0.916050000000     0.803966666667    -0.438888   
C6       C      0.528150000000     0.867700000000     0.988666666667    -0.684417   
C8       C      0.527650000000     0.940100000000     0.775633333333     0.286068   
H8       H      0.550000000000     0.948500000000     0.765000000000    -0.030139   
C9       C      0.527150000000     0.862350000000     0.698733333333     0.515602   
H9       H      0.546405000000     0.859233000000     0.713099666667    -0.136991   
Al01     Al     0.622960000000     0.843130000000     0.973266666667     5.89807    
O002     O      0.624650000000     0.870295000000     0.928766666667    -2.14388    
O003     O      0.666750000000     0.834400000000     0.968600000000    -1.4133     
O006     O      0.579150000000     0.848150000000     0.981133333333    -1.44352    
O1       O      0.614150000000     0.809300000000     0.933633333333    -1.36866    
O2       O      0.619700000000     0.810800000000     0.681266666667    -1.45071    
C2       C      0.633600000000     0.807500000000     0.714833333333     1.18299    
C4       C      0.595900000000     0.809000000000     0.903900000000     1.08758    
C1       C      0.583950000000     0.778550000000     0.887300000000    -0.437537   
C6       C      0.632300000000     0.778150000000     0.738666666667    -0.649454   
C8       C      0.559900000000     0.777650000000     0.858966666667     0.284722   
H8       H      0.551500000000     0.800000000000     0.848333333333    -0.0300062  
C9       C      0.637650000000     0.777150000000     0.782066666667     0.515532   
H9       H      0.640767000000     0.796405000000     0.796433000000    -0.13696    
Al01     Al     0.656870000000     0.872960000000     0.723266666667     5.95252    
O002     O      0.629705000000     0.874650000000     0.678766666667    -2.15152    
O003     O      0.665600000000     0.916750000000     0.718600000000    -1.42372    
O006     O      0.651850000000     0.829150000000     0.731133333333    -1.4448     
O1       O      0.690700000000     0.864150000000     0.683633333333    -1.37517    
O2       O      0.689200000000     0.869700000000     0.764600000000    -1.45071    
C2       C      0.692500000000     0.883600000000     0.798166666667     1.18301    
C4       C      0.691000000000     0.845900000000     0.987233333333     1.06835    
C1       C      0.721450000000     0.833950000000     0.970633333333    -0.43015    
C6       C      0.721850000000     0.882300000000     0.822000000000    -0.649493   
C8       C      0.722350000000     0.809900000000     0.942300000000     0.278427   
H8       H      0.700000000000     0.801500000000     0.931666666667    -0.0290275  
C9       C      0.722850000000     0.887650000000     0.865400000000     0.515377   
H9       H      0.703595000000     0.890767000000     0.879766333333    -0.137475   
Al01     Al     0.627040000000     0.906870000000     0.806600000000     5.95278    
O002     O      0.625350000000     0.879705000000     0.762100000000    -2.15157    
O003     O      0.583250000000     0.915600000000     0.801933333333    -1.42368    
O006     O      0.670850000000     0.901850000000     0.814466666667    -1.44494    
O1       O      0.635850000000     0.940700000000     0.766966666667    -1.37487    
O2       O      0.630300000000     0.939200000000     0.847933333333    -1.45229    
C2       C      0.616400000000     0.942500000000     0.881500000000     1.18836    
C4       C      0.654100000000     0.941000000000     0.737233333333     1.09094    
C1       C      0.666050000000     0.971450000000     0.720633333333    -0.438236   
C6       C      0.617700000000     0.971850000000     0.905333333333    -0.664779   
C8       C      0.690100000000     0.972350000000     0.692300000000     0.287588   
H8       H      0.698500000000     0.950000000000     0.681666666667    -0.0305463  
C9       C      0.612350000000     0.972850000000     0.948733333333     0.544324   
H9       H      0.609233000000     0.953595000000     0.963099666667    -0.149828   
Al01     Al     0.656870000000     0.627040000000     0.723266666667     5.95247    
O002     O      0.629705000000     0.625350000000     0.678766666667    -2.15153    
O003     O      0.665600000000     0.583250000000     0.718600000000    -1.42377    
O006     O      0.651850000000     0.670850000000     0.731133333333    -1.44479    
O1       O      0.690700000000     0.635850000000     0.683633333333    -1.37518    
O2       O      0.689200000000     0.630300000000     0.764600000000    -1.45071    
C2       C      0.692500000000     0.616400000000     0.798166666667     1.18301    
C4       C      0.691000000000     0.654100000000     0.987233333333     1.06831    
C1       C      0.721450000000     0.666050000000     0.970633333333    -0.430136   
C5       C      0.750000000000     0.622300000000     0.801500000000     0.576211   
C7       C      0.750000000000     0.611450000000     0.887700000000    -0.577486   
H7       H      0.750000000000     0.610297500000     0.917265666667     0.224991   
C3       C      0.750000000000     0.654450000000     0.988633333333     0.267335   
C6       C      0.721850000000     0.617700000000     0.822000000000    -0.649538   
C8       C      0.722350000000     0.690100000000     0.942300000000     0.278416   
H8       H      0.700000000000     0.698500000000     0.931666666667    -0.0290243  
C9       C      0.722850000000     0.612350000000     0.865400000000     0.515361   
H9       H      0.703595000000     0.609233000000     0.879766333333    -0.137515   
C13      C      0.750000000000     0.701050000000     0.928833333333    -0.322942   
H13      H      0.750000000000     0.718000000000     0.907000000000     0.117123   
H5       H      0.750000000000     0.626000000000     0.773000000000    -0.146516   
Al01     Al     0.872960000000     0.906870000000     0.806600000000     5.95283    
O002     O      0.874650000000     0.879705000000     0.762100000000    -2.15155    
O003     O      0.916750000000     0.915600000000     0.801933333333    -1.42363    
O006     O      0.829150000000     0.901850000000     0.814466666667    -1.44495    
O1       O      0.864150000000     0.940700000000     0.766966666667    -1.37486    
O2       O      0.869700000000     0.939200000000     0.847933333333    -1.45228    
C2       C      0.883600000000     0.942500000000     0.881500000000     1.18835    
C4       C      0.845900000000     0.941000000000     0.737233333333     1.09095    
C1       C      0.833950000000     0.971450000000     0.720633333333    -0.43824    
C5       C      0.877700000000     0.500000000000     0.884833333333     0.590627   
C7       C      0.888550000000     0.500000000000     0.971033333333    -0.625336   
H7       H      0.889702500000     0.500000000000     0.667265666667     0.226374   
C3       C      0.845550000000     0.500000000000     0.738633333333     0.279469   
C6       C      0.882300000000     0.971850000000     0.905333333333    -0.664704   
C8       C      0.809900000000     0.972350000000     0.692300000000     0.28759    
H8       H      0.801500000000     0.950000000000     0.681666666667    -0.0305472  
C9       C      0.887650000000     0.972850000000     0.948733333333     0.544285   
H9       H      0.890767000000     0.953595000000     0.963099666667    -0.149765   
C13      C      0.798950000000     0.500000000000     0.678833333333    -0.32893    
H13      H      0.782000000000     0.500000000000     0.990333333333     0.101116   
H5       H      0.874000000000     0.500000000000     0.856333333333    -0.151474   
Al01     Al     0.593130000000     0.622960000000     0.889933333333     5.95179    
O002     O      0.620295000000     0.624650000000     0.845433333333    -2.15165    
O003     O      0.584400000000     0.666750000000     0.885266666667    -1.42235    
O006     O      0.598150000000     0.579150000000     0.897800000000    -1.4468     
O1       O      0.559300000000     0.614150000000     0.850300000000    -1.3749     
O2       O      0.560800000000     0.619700000000     0.931266666667    -1.45321    
C2       C      0.557500000000     0.633600000000     0.964833333333     1.19114    
C4       C      0.559000000000     0.595900000000     0.820566666667     1.09093    
C1       C      0.528550000000     0.583950000000     0.803966666667    -0.438913   
C5       C      0.500000000000     0.627700000000     0.968166666667     0.603856   
C7       C      0.500000000000     0.638550000000     0.721033333333    -0.577463   
H7       H      0.500000000000     0.639702500000     0.750599000000     0.22634    
C3       C      0.500000000000     0.595550000000     0.821966666667     0.279388   
C6       C      0.528150000000     0.632300000000     0.988666666667    -0.684491   
C8       C      0.527650000000     0.559900000000     0.775633333333     0.285983   
H8       H      0.550000000000     0.551500000000     0.765000000000    -0.0302719  
C9       C      0.527150000000     0.637650000000     0.698733333333     0.515601   
H9       H      0.546405000000     0.640767000000     0.713099666667    -0.136999   
C13      C      0.500000000000     0.548950000000     0.762166666667    -0.328909   
H13      H      0.500000000000     0.532000000000     0.740333333333     0.119145   
H5       H      0.500000000000     0.624000000000     0.939666666667    -0.1562     
Al01     Al     0.877040000000     0.843130000000     0.973266666667     5.89819    
O002     O      0.875350000000     0.870295000000     0.928766666667    -2.14389    
O003     O      0.833250000000     0.834400000000     0.968600000000    -1.41332    
O006     O      0.920850000000     0.848150000000     0.981133333333    -1.44345    
O1       O      0.885850000000     0.809300000000     0.933633333333    -1.36867    
O2       O      0.880300000000     0.810800000000     0.681266666667    -1.45068    
C2       C      0.866400000000     0.807500000000     0.714833333333     1.183      
C4       C      0.904100000000     0.809000000000     0.903900000000     1.0876     
C1       C      0.916050000000     0.778550000000     0.887300000000    -0.437515   
C5       C      0.872300000000     0.750000000000     0.718166666667     0.576218   
C7       C      0.861450000000     0.750000000000     0.804366666667    -0.577322   
H7       H      0.860297500000     0.750000000000     0.833932333333     0.226209   
C3       C      0.904450000000     0.750000000000     0.905300000000     0.276109   
C6       C      0.867700000000     0.778150000000     0.738666666667    -0.649426   
C8       C      0.940100000000     0.777650000000     0.858966666667     0.28481    
H8       H      0.948500000000     0.800000000000     0.848333333333    -0.0298732  
C9       C      0.862350000000     0.777150000000     0.782066666667     0.515533   
H9       H      0.859233000000     0.796405000000     0.796433000000    -0.136953   
C13      C      0.951050000000     0.750000000000     0.845500000000    -0.327962   
H13      H      0.968000000000     0.750000000000     0.823666666667     0.119052   
H5       H      0.876000000000     0.750000000000     0.689666666667    -0.146484   
Al01     Al     0.843130000000     0.627040000000     0.723266666667     5.95249    
O002     O      0.870295000000     0.625350000000     0.678766666667    -2.15153    
O003     O      0.834400000000     0.583250000000     0.718600000000    -1.42377    
O006     O      0.848150000000     0.670850000000     0.731133333333    -1.44479    
O1       O      0.809300000000     0.635850000000     0.683633333333    -1.37519    
O2       O      0.810800000000     0.630300000000     0.764600000000    -1.45072    
C2       C      0.807500000000     0.616400000000     0.798166666667     1.18301    
C4       C      0.809000000000     0.654100000000     0.987233333333     1.06833    
C1       C      0.778550000000     0.666050000000     0.970633333333    -0.430142   
C6       C      0.778150000000     0.617700000000     0.822000000000    -0.64954    
C8       C      0.777650000000     0.690100000000     0.942300000000     0.278418   
H8       H      0.800000000000     0.698500000000     0.931666666667    -0.0290249  
C9       C      0.777150000000     0.612350000000     0.865400000000     0.515361   
H9       H      0.796405000000     0.609233000000     0.879766333333    -0.137516   
Al01     Al     0.872960000000     0.593130000000     0.806600000000     5.95287    
O002     O      0.874650000000     0.620295000000     0.762100000000    -2.15155    
O003     O      0.916750000000     0.584400000000     0.801933333333    -1.4237     
O006     O      0.829150000000     0.598150000000     0.814466666667    -1.44501    
O1       O      0.864150000000     0.559300000000     0.766966666667    -1.37512    
O2       O      0.869700000000     0.560800000000     0.847933333333    -1.45254    
C2       C      0.883600000000     0.557500000000     0.881500000000     1.18848    
C4       C      0.845900000000     0.559000000000     0.737233333333     1.09104    
C1       C      0.833950000000     0.528550000000     0.720633333333    -0.438938   
C6       C      0.882300000000     0.528150000000     0.905333333333    -0.665517   
C8       C      0.809900000000     0.527650000000     0.692300000000     0.286034   
H8       H      0.801500000000     0.550000000000     0.681666666667    -0.0303013  
C9       C      0.887650000000     0.527150000000     0.948733333333     0.542641   
H9       H      0.890767000000     0.546405000000     0.963099666667    -0.149384   
Al01     Al     0.906870000000     0.622960000000     0.889933333333     5.95175    
O002     O      0.879705000000     0.624650000000     0.845433333333    -2.15165    
O003     O      0.915600000000     0.666750000000     0.885266666667    -1.42228    
O006     O      0.901850000000     0.579150000000     0.897800000000    -1.44674    
O1       O      0.940700000000     0.614150000000     0.850300000000    -1.37463    
O2       O      0.939200000000     0.619700000000     0.931266666667    -1.45294    
C2       C      0.942500000000     0.633600000000     0.964833333333     1.191      
C4       C      0.941000000000     0.595900000000     0.820566666667     1.09085    
C1       C      0.971450000000     0.583950000000     0.803966666667    -0.438211   
C6       C      0.971850000000     0.632300000000     0.988666666667    -0.683617   
C8       C      0.972350000000     0.559900000000     0.775633333333     0.287544   
H8       H      0.950000000000     0.551500000000     0.765000000000    -0.0305184  
C9       C      0.972850000000     0.637650000000     0.698733333333     0.51735    
H9       H      0.953595000000     0.640767000000     0.713099666667    -0.137422   
Al01     Al     0.877040000000     0.656870000000     0.973266666667     5.89812    
O002     O      0.875350000000     0.629705000000     0.928766666667    -2.14389    
O003     O      0.833250000000     0.665600000000     0.968600000000    -1.41331    
O006     O      0.920850000000     0.651850000000     0.981133333333    -1.44345    
O1       O      0.885850000000     0.690700000000     0.933633333333    -1.36865    
O2       O      0.880300000000     0.689200000000     0.681266666667    -1.45068    
C2       C      0.866400000000     0.692500000000     0.714833333333     1.18299    
C4       C      0.904100000000     0.691000000000     0.903900000000     1.0876     
C1       C      0.916050000000     0.721450000000     0.887300000000    -0.437513   
C6       C      0.867700000000     0.721850000000     0.738666666667    -0.649424   
C8       C      0.940100000000     0.722350000000     0.858966666667     0.28481    
H8       H      0.948500000000     0.700000000000     0.848333333333    -0.0298721  
C9       C      0.862350000000     0.722850000000     0.782066666667     0.515533   
H9       H      0.859233000000     0.703595000000     0.796433000000    -0.136952   


